version 2
run General-0-20240314-10:19:21-2252
attr configname General
attr datetime 20240314-10:19:21
attr experiment General
attr inifile omnet.ini
attr iterationvars ""
attr iterationvars2 $repetition=0
attr measurement ""
attr network WirelessNetwork
attr processid 2252
attr repetition 0
attr replication #0
attr resultdir results
attr runnumber 0
attr seedset 0

scalar WirelessNetwork.Fog1.networkLayer.arp 	sentReply:count 	0
attr title  "ARP replies sent, count"
scalar WirelessNetwork.Fog1.networkLayer.arp 	sentReq:count 	1
attr title  "ARP request sent, count"
scalar WirelessNetwork.Fog1.networkLayer.arp 	failedARPResolution:count 	0
attr title  "ARP failed resolutions, count"
scalar WirelessNetwork.Fog1.networkLayer.arp 	completedARPResolution:count 	1
attr title  "ARP completed resolutions, count"
scalar WirelessNetwork.Fog1.networkLayer.arp 	initiatedARPResolution:count 	1
attr title  "ARP initiated resolutions, count"
scalar WirelessNetwork.Fog1.lo0.lo 	droppedPkBitError:count 	0
attr interpolationmode  none
attr source  dropPkBitError
attr title  "packets dropped/bit error, count"
scalar WirelessNetwork.Fog1.lo0.lo 	droppedPkBitError:sum(packetBytes) 	0
attr interpolationmode  none
attr source  dropPkBitError
attr title  "packets dropped/bit error, sum(packetBytes)"
scalar WirelessNetwork.Fog1.lo0.lo 	rcvdPkFromHL:count 	0
attr interpolationmode  none
attr source  packetReceivedFromUpper
attr title  "packets received from higher layer, count"
scalar WirelessNetwork.Fog1.lo0.lo 	rcvdPkFromHL:sum(packetBytes) 	0
attr interpolationmode  none
attr source  packetReceivedFromUpper
attr title  "packets received from higher layer, sum(packetBytes)"
scalar WirelessNetwork.Fog1.lo0.lo 	passedUpPk:count 	0
attr interpolationmode  none
attr source  packetSentToUpper
attr title  "packets passed to higher layer, count"
scalar WirelessNetwork.Fog1.lo0.lo 	passedUpPk:sum(packetBytes) 	0
attr interpolationmode  none
attr source  packetSentToUpper
attr title  "packets passed to higher layer, sum(packetBytes)"
scalar WirelessNetwork.Fog1.eth[0].queue.pauseQueue 	queueLength:max 	0
attr interpolationmode  sample-hold
attr title  "queue length, max"
scalar WirelessNetwork.Fog1.eth[0].queue.pauseQueue 	queueLength:timeavg 	0
attr interpolationmode  sample-hold
attr title  "queue length, timeavg"
statistic WirelessNetwork.Fog1.eth[0].queue.pauseQueue 	queueingTime:histogram
field count 0
field mean nan
field stddev nan
field sum 0
field sqrsum 0
field min nan
field max nan
attr interpolationmode  none
attr title  "queueing time, histogram"
bin	-INF	0
bin	-0.5	0
bin	-0.46666666666667	0
bin	-0.43333333333333	0
bin	-0.4	0
bin	-0.36666666666667	0
bin	-0.33333333333333	0
bin	-0.3	0
bin	-0.26666666666667	0
bin	-0.23333333333333	0
bin	-0.2	0
bin	-0.16666666666667	0
bin	-0.13333333333333	0
bin	-0.1	0
bin	-0.066666666666667	0
bin	-0.033333333333333	0
bin	-6.9388939039072e-018	0
bin	0.033333333333333	0
bin	0.066666666666667	0
bin	0.1	0
bin	0.13333333333333	0
bin	0.16666666666667	0
bin	0.2	0
bin	0.23333333333333	0
bin	0.26666666666667	0
bin	0.3	0
bin	0.33333333333333	0
bin	0.36666666666667	0
bin	0.4	0
bin	0.43333333333333	0
bin	0.46666666666667	0
bin	0.5	0
scalar WirelessNetwork.Fog1.eth[0].queue.pauseQueue 	dropPk:count 	0
attr interpolationmode  none
attr source  dropPkByQueue
attr title  "dropped packets, count"
scalar WirelessNetwork.Fog1.eth[0].queue.pauseQueue 	dropPk:sum(packetBytes) 	0
attr interpolationmode  none
attr source  dropPkByQueue
attr title  "dropped packets, sum(packetBytes)"
scalar WirelessNetwork.Fog1.eth[0].queue.pauseQueue 	rcvdPk:count 	0
attr interpolationmode  none
attr title  "received packets, count"
scalar WirelessNetwork.Fog1.eth[0].queue.pauseQueue 	rcvdPk:sum(packetBytes) 	0
attr interpolationmode  none
attr title  "received packets, sum(packetBytes)"
scalar WirelessNetwork.Fog1.eth[0].queue.dataQueue 	queueLength:max 	1
attr interpolationmode  sample-hold
attr title  "queue length, max"
scalar WirelessNetwork.Fog1.eth[0].queue.dataQueue 	queueLength:timeavg 	0
attr interpolationmode  sample-hold
attr title  "queue length, timeavg"
statistic WirelessNetwork.Fog1.eth[0].queue.dataQueue 	queueingTime:histogram
field count 2
field mean 0
field stddev 0
field sum 0
field sqrsum 0
field min 0
field max 0
attr interpolationmode  none
attr title  "queueing time, histogram"
bin	-INF	0
bin	-0.5	0
bin	-0.46666666666667	0
bin	-0.43333333333333	0
bin	-0.4	0
bin	-0.36666666666667	0
bin	-0.33333333333333	0
bin	-0.3	0
bin	-0.26666666666667	0
bin	-0.23333333333333	0
bin	-0.2	0
bin	-0.16666666666667	0
bin	-0.13333333333333	0
bin	-0.1	0
bin	-0.066666666666667	0
bin	-0.033333333333333	0
bin	-6.9388939039072e-018	2
bin	0.033333333333333	0
bin	0.066666666666667	0
bin	0.1	0
bin	0.13333333333333	0
bin	0.16666666666667	0
bin	0.2	0
bin	0.23333333333333	0
bin	0.26666666666667	0
bin	0.3	0
bin	0.33333333333333	0
bin	0.36666666666667	0
bin	0.4	0
bin	0.43333333333333	0
bin	0.46666666666667	0
bin	0.5	0
scalar WirelessNetwork.Fog1.eth[0].queue.dataQueue 	dropPk:count 	0
attr interpolationmode  none
attr source  dropPkByQueue
attr title  "dropped packets, count"
scalar WirelessNetwork.Fog1.eth[0].queue.dataQueue 	dropPk:sum(packetBytes) 	0
attr interpolationmode  none
attr source  dropPkByQueue
attr title  "dropped packets, sum(packetBytes)"
scalar WirelessNetwork.Fog1.eth[0].queue.dataQueue 	rcvdPk:count 	2
attr interpolationmode  none
attr title  "received packets, count"
scalar WirelessNetwork.Fog1.eth[0].queue.dataQueue 	rcvdPk:sum(packetBytes) 	128
attr interpolationmode  none
attr title  "received packets, sum(packetBytes)"
scalar WirelessNetwork.Fog1.eth[0].mac 	"simulated time" 	2.93e-005
scalar WirelessNetwork.Fog1.eth[0].mac 	full-duplex 	1
scalar WirelessNetwork.Fog1.eth[0].mac 	"frames/sec sent" 	68259.385665529
scalar WirelessNetwork.Fog1.eth[0].mac 	"frames/sec rcvd" 	34129.692832765
scalar WirelessNetwork.Fog1.eth[0].mac 	"bits/sec sent" 	34948805.460751
scalar WirelessNetwork.Fog1.eth[0].mac 	"bits/sec rcvd" 	17474402.730375
scalar WirelessNetwork.Fog1.eth[0].mac 	"rx channel idle (%)" 	80.341296928328
scalar WirelessNetwork.Fog1.eth[0].mac 	"rx channel utilization (%)" 	19.658703071672
scalar WirelessNetwork.Fog1.eth[0].mac 	rxPkFromHL:count 	2
attr interpolationmode  none
attr source  rxPkFromHL
attr title  "packet bytes from higher layer, count"
scalar WirelessNetwork.Fog1.eth[0].mac 	rxPkFromHL:sum(packetBytes) 	128
attr interpolationmode  none
attr source  rxPkFromHL
attr title  "packet bytes from higher layer, sum(packetBytes)"
scalar WirelessNetwork.Fog1.eth[0].mac 	rxPausePkUnits:count 	0
attr interpolationmode  none
attr title  "pause units received, count"
scalar WirelessNetwork.Fog1.eth[0].mac 	rxPausePkUnits:sum 	0
attr interpolationmode  none
attr title  "pause units received, sum"
scalar WirelessNetwork.Fog1.eth[0].mac 	txPausePkUnits:count 	0
attr interpolationmode  none
attr title  "pause units sent, count"
scalar WirelessNetwork.Fog1.eth[0].mac 	txPausePkUnits:sum 	0
attr interpolationmode  none
attr title  "pause units sent, sum"
scalar WirelessNetwork.Fog1.eth[0].mac 	txPk:count 	2
attr interpolationmode  none
attr source  txPk
attr title  "packets transmitted, count"
scalar WirelessNetwork.Fog1.eth[0].mac 	txPk:sum(packetBytes) 	128
attr interpolationmode  none
attr source  txPk
attr title  "packets transmitted, sum(packetBytes)"
scalar WirelessNetwork.Fog1.eth[0].mac 	droppedPkNotForUs:count 	0
attr interpolationmode  none
attr source  dropPkNotForUs
attr title  "packets dropped/not for us, count"
scalar WirelessNetwork.Fog1.eth[0].mac 	droppedPkNotForUs:sum(packetBytes) 	0
attr interpolationmode  none
attr source  dropPkNotForUs
attr title  "packets dropped/not for us, sum(packetBytes)"
scalar WirelessNetwork.Fog1.eth[0].mac 	droppedPkBitError:count 	0
attr interpolationmode  none
attr source  dropPkBitError
attr title  "packets dropped/bit error, count"
scalar WirelessNetwork.Fog1.eth[0].mac 	droppedPkBitError:sum(packetBytes) 	0
attr interpolationmode  none
attr source  dropPkBitError
attr title  "packets dropped/bit error, sum(packetBytes)"
scalar WirelessNetwork.Fog1.eth[0].mac 	droppedPkIfaceDown:count 	0
attr interpolationmode  none
attr source  dropPkIfaceDown
attr title  "packets dropped/interface down, count"
scalar WirelessNetwork.Fog1.eth[0].mac 	droppedPkIfaceDown:sum(packetBytes) 	0
attr interpolationmode  none
attr source  dropPkIfaceDown
attr title  "packets dropped/interface down, sum(packetBytes)"
scalar WirelessNetwork.Fog1.eth[0].mac 	rxPkOk:count 	1
attr interpolationmode  none
attr source  rxPkOk
attr title  "packets received OK, count"
scalar WirelessNetwork.Fog1.eth[0].mac 	rxPkOk:sum(packetBytes) 	64
attr interpolationmode  none
attr source  rxPkOk
attr title  "packets received OK, sum(packetBytes)"
scalar WirelessNetwork.Fog1.eth[0].mac 	passedUpPk:count 	1
attr interpolationmode  none
attr source  packetSentToUpper
attr title  "packets passed to higher layer, count"
scalar WirelessNetwork.Fog1.eth[0].mac 	passedUpPk:sum(packetBytes) 	64
attr interpolationmode  none
attr source  packetSentToUpper
attr title  "packets passed to higher layer, sum(packetBytes)"
scalar WirelessNetwork.Fog1.eth[0].encap 	pauseSent:count 	0
attr title  "pause sent, count"
scalar WirelessNetwork.Fog1.eth[0].encap 	pauseSent:sum 	0
attr title  "pause sent, sum"
scalar WirelessNetwork.Fog1.eth[0].encap 	decapPk:count 	1
attr interpolationmode  none
attr source  decapPk
attr title  "packets decapsulated, count"
scalar WirelessNetwork.Fog1.eth[0].encap 	decapPk:sum(packetBytes) 	28
attr interpolationmode  none
attr source  decapPk
attr title  "packets decapsulated, sum(packetBytes)"
scalar WirelessNetwork.Fog1.eth[0].encap 	encapPk:count 	2
attr interpolationmode  none
attr source  encapPk
attr title  "packets encapsulated, count"
scalar WirelessNetwork.Fog1.eth[0].encap 	encapPk:sum(packetBytes) 	56
attr interpolationmode  none
attr source  encapPk
attr title  "packets encapsulated, sum(packetBytes)"
scalar WirelessNetwork.Fog1.eth[1].queue.pauseQueue 	queueLength:max 	0
attr interpolationmode  sample-hold
attr title  "queue length, max"
scalar WirelessNetwork.Fog1.eth[1].queue.pauseQueue 	queueLength:timeavg 	0
attr interpolationmode  sample-hold
attr title  "queue length, timeavg"
statistic WirelessNetwork.Fog1.eth[1].queue.pauseQueue 	queueingTime:histogram
field count 0
field mean nan
field stddev nan
field sum 0
field sqrsum 0
field min nan
field max nan
attr interpolationmode  none
attr title  "queueing time, histogram"
bin	-INF	0
bin	-0.5	0
bin	-0.46666666666667	0
bin	-0.43333333333333	0
bin	-0.4	0
bin	-0.36666666666667	0
bin	-0.33333333333333	0
bin	-0.3	0
bin	-0.26666666666667	0
bin	-0.23333333333333	0
bin	-0.2	0
bin	-0.16666666666667	0
bin	-0.13333333333333	0
bin	-0.1	0
bin	-0.066666666666667	0
bin	-0.033333333333333	0
bin	-6.9388939039072e-018	0
bin	0.033333333333333	0
bin	0.066666666666667	0
bin	0.1	0
bin	0.13333333333333	0
bin	0.16666666666667	0
bin	0.2	0
bin	0.23333333333333	0
bin	0.26666666666667	0
bin	0.3	0
bin	0.33333333333333	0
bin	0.36666666666667	0
bin	0.4	0
bin	0.43333333333333	0
bin	0.46666666666667	0
bin	0.5	0
scalar WirelessNetwork.Fog1.eth[1].queue.pauseQueue 	dropPk:count 	0
attr interpolationmode  none
attr source  dropPkByQueue
attr title  "dropped packets, count"
scalar WirelessNetwork.Fog1.eth[1].queue.pauseQueue 	dropPk:sum(packetBytes) 	0
attr interpolationmode  none
attr source  dropPkByQueue
attr title  "dropped packets, sum(packetBytes)"
scalar WirelessNetwork.Fog1.eth[1].queue.pauseQueue 	rcvdPk:count 	0
attr interpolationmode  none
attr title  "received packets, count"
scalar WirelessNetwork.Fog1.eth[1].queue.pauseQueue 	rcvdPk:sum(packetBytes) 	0
attr interpolationmode  none
attr title  "received packets, sum(packetBytes)"
scalar WirelessNetwork.Fog1.eth[1].queue.dataQueue 	queueLength:max 	0
attr interpolationmode  sample-hold
attr title  "queue length, max"
scalar WirelessNetwork.Fog1.eth[1].queue.dataQueue 	queueLength:timeavg 	0
attr interpolationmode  sample-hold
attr title  "queue length, timeavg"
statistic WirelessNetwork.Fog1.eth[1].queue.dataQueue 	queueingTime:histogram
field count 0
field mean nan
field stddev nan
field sum 0
field sqrsum 0
field min nan
field max nan
attr interpolationmode  none
attr title  "queueing time, histogram"
bin	-INF	0
bin	-0.5	0
bin	-0.46666666666667	0
bin	-0.43333333333333	0
bin	-0.4	0
bin	-0.36666666666667	0
bin	-0.33333333333333	0
bin	-0.3	0
bin	-0.26666666666667	0
bin	-0.23333333333333	0
bin	-0.2	0
bin	-0.16666666666667	0
bin	-0.13333333333333	0
bin	-0.1	0
bin	-0.066666666666667	0
bin	-0.033333333333333	0
bin	-6.9388939039072e-018	0
bin	0.033333333333333	0
bin	0.066666666666667	0
bin	0.1	0
bin	0.13333333333333	0
bin	0.16666666666667	0
bin	0.2	0
bin	0.23333333333333	0
bin	0.26666666666667	0
bin	0.3	0
bin	0.33333333333333	0
bin	0.36666666666667	0
bin	0.4	0
bin	0.43333333333333	0
bin	0.46666666666667	0
bin	0.5	0
scalar WirelessNetwork.Fog1.eth[1].queue.dataQueue 	dropPk:count 	0
attr interpolationmode  none
attr source  dropPkByQueue
attr title  "dropped packets, count"
scalar WirelessNetwork.Fog1.eth[1].queue.dataQueue 	dropPk:sum(packetBytes) 	0
attr interpolationmode  none
attr source  dropPkByQueue
attr title  "dropped packets, sum(packetBytes)"
scalar WirelessNetwork.Fog1.eth[1].queue.dataQueue 	rcvdPk:count 	0
attr interpolationmode  none
attr title  "received packets, count"
scalar WirelessNetwork.Fog1.eth[1].queue.dataQueue 	rcvdPk:sum(packetBytes) 	0
attr interpolationmode  none
attr title  "received packets, sum(packetBytes)"
scalar WirelessNetwork.Fog1.eth[1].mac 	"simulated time" 	2.93e-005
scalar WirelessNetwork.Fog1.eth[1].mac 	full-duplex 	1
scalar WirelessNetwork.Fog1.eth[1].mac 	"frames/sec sent" 	0
scalar WirelessNetwork.Fog1.eth[1].mac 	"frames/sec rcvd" 	0
scalar WirelessNetwork.Fog1.eth[1].mac 	"bits/sec sent" 	0
scalar WirelessNetwork.Fog1.eth[1].mac 	"bits/sec rcvd" 	0
scalar WirelessNetwork.Fog1.eth[1].mac 	"rx channel idle (%)" 	100
scalar WirelessNetwork.Fog1.eth[1].mac 	"rx channel utilization (%)" 	0
scalar WirelessNetwork.Fog1.eth[1].mac 	rxPkFromHL:count 	0
attr interpolationmode  none
attr source  rxPkFromHL
attr title  "packet bytes from higher layer, count"
scalar WirelessNetwork.Fog1.eth[1].mac 	rxPkFromHL:sum(packetBytes) 	0
attr interpolationmode  none
attr source  rxPkFromHL
attr title  "packet bytes from higher layer, sum(packetBytes)"
scalar WirelessNetwork.Fog1.eth[1].mac 	rxPausePkUnits:count 	0
attr interpolationmode  none
attr title  "pause units received, count"
scalar WirelessNetwork.Fog1.eth[1].mac 	rxPausePkUnits:sum 	0
attr interpolationmode  none
attr title  "pause units received, sum"
scalar WirelessNetwork.Fog1.eth[1].mac 	txPausePkUnits:count 	0
attr interpolationmode  none
attr title  "pause units sent, count"
scalar WirelessNetwork.Fog1.eth[1].mac 	txPausePkUnits:sum 	0
attr interpolationmode  none
attr title  "pause units sent, sum"
scalar WirelessNetwork.Fog1.eth[1].mac 	txPk:count 	0
attr interpolationmode  none
attr source  txPk
attr title  "packets transmitted, count"
scalar WirelessNetwork.Fog1.eth[1].mac 	txPk:sum(packetBytes) 	0
attr interpolationmode  none
attr source  txPk
attr title  "packets transmitted, sum(packetBytes)"
scalar WirelessNetwork.Fog1.eth[1].mac 	droppedPkNotForUs:count 	0
attr interpolationmode  none
attr source  dropPkNotForUs
attr title  "packets dropped/not for us, count"
scalar WirelessNetwork.Fog1.eth[1].mac 	droppedPkNotForUs:sum(packetBytes) 	0
attr interpolationmode  none
attr source  dropPkNotForUs
attr title  "packets dropped/not for us, sum(packetBytes)"
scalar WirelessNetwork.Fog1.eth[1].mac 	droppedPkBitError:count 	0
attr interpolationmode  none
attr source  dropPkBitError
attr title  "packets dropped/bit error, count"
scalar WirelessNetwork.Fog1.eth[1].mac 	droppedPkBitError:sum(packetBytes) 	0
attr interpolationmode  none
attr source  dropPkBitError
attr title  "packets dropped/bit error, sum(packetBytes)"
scalar WirelessNetwork.Fog1.eth[1].mac 	droppedPkIfaceDown:count 	0
attr interpolationmode  none
attr source  dropPkIfaceDown
attr title  "packets dropped/interface down, count"
scalar WirelessNetwork.Fog1.eth[1].mac 	droppedPkIfaceDown:sum(packetBytes) 	0
attr interpolationmode  none
attr source  dropPkIfaceDown
attr title  "packets dropped/interface down, sum(packetBytes)"
scalar WirelessNetwork.Fog1.eth[1].mac 	rxPkOk:count 	0
attr interpolationmode  none
attr source  rxPkOk
attr title  "packets received OK, count"
scalar WirelessNetwork.Fog1.eth[1].mac 	rxPkOk:sum(packetBytes) 	0
attr interpolationmode  none
attr source  rxPkOk
attr title  "packets received OK, sum(packetBytes)"
scalar WirelessNetwork.Fog1.eth[1].mac 	passedUpPk:count 	0
attr interpolationmode  none
attr source  packetSentToUpper
attr title  "packets passed to higher layer, count"
scalar WirelessNetwork.Fog1.eth[1].mac 	passedUpPk:sum(packetBytes) 	0
attr interpolationmode  none
attr source  packetSentToUpper
attr title  "packets passed to higher layer, sum(packetBytes)"
scalar WirelessNetwork.Fog1.eth[1].encap 	pauseSent:count 	0
attr title  "pause sent, count"
scalar WirelessNetwork.Fog1.eth[1].encap 	pauseSent:sum 	0
attr title  "pause sent, sum"
scalar WirelessNetwork.Fog1.eth[1].encap 	decapPk:count 	0
attr interpolationmode  none
attr source  decapPk
attr title  "packets decapsulated, count"
scalar WirelessNetwork.Fog1.eth[1].encap 	decapPk:sum(packetBytes) 	0
attr interpolationmode  none
attr source  decapPk
attr title  "packets decapsulated, sum(packetBytes)"
scalar WirelessNetwork.Fog1.eth[1].encap 	encapPk:count 	0
attr interpolationmode  none
attr source  encapPk
attr title  "packets encapsulated, count"
scalar WirelessNetwork.Fog1.eth[1].encap 	encapPk:sum(packetBytes) 	0
attr interpolationmode  none
attr source  encapPk
attr title  "packets encapsulated, sum(packetBytes)"
scalar WirelessNetwork.Fog1.eth[2].queue.pauseQueue 	queueLength:max 	0
attr interpolationmode  sample-hold
attr title  "queue length, max"
scalar WirelessNetwork.Fog1.eth[2].queue.pauseQueue 	queueLength:timeavg 	0
attr interpolationmode  sample-hold
attr title  "queue length, timeavg"
statistic WirelessNetwork.Fog1.eth[2].queue.pauseQueue 	queueingTime:histogram
field count 0
field mean nan
field stddev nan
field sum 0
field sqrsum 0
field min nan
field max nan
attr interpolationmode  none
attr title  "queueing time, histogram"
bin	-INF	0
bin	-0.5	0
bin	-0.46666666666667	0
bin	-0.43333333333333	0
bin	-0.4	0
bin	-0.36666666666667	0
bin	-0.33333333333333	0
bin	-0.3	0
bin	-0.26666666666667	0
bin	-0.23333333333333	0
bin	-0.2	0
bin	-0.16666666666667	0
bin	-0.13333333333333	0
bin	-0.1	0
bin	-0.066666666666667	0
bin	-0.033333333333333	0
bin	-6.9388939039072e-018	0
bin	0.033333333333333	0
bin	0.066666666666667	0
bin	0.1	0
bin	0.13333333333333	0
bin	0.16666666666667	0
bin	0.2	0
bin	0.23333333333333	0
bin	0.26666666666667	0
bin	0.3	0
bin	0.33333333333333	0
bin	0.36666666666667	0
bin	0.4	0
bin	0.43333333333333	0
bin	0.46666666666667	0
bin	0.5	0
scalar WirelessNetwork.Fog1.eth[2].queue.pauseQueue 	dropPk:count 	0
attr interpolationmode  none
attr source  dropPkByQueue
attr title  "dropped packets, count"
scalar WirelessNetwork.Fog1.eth[2].queue.pauseQueue 	dropPk:sum(packetBytes) 	0
attr interpolationmode  none
attr source  dropPkByQueue
attr title  "dropped packets, sum(packetBytes)"
scalar WirelessNetwork.Fog1.eth[2].queue.pauseQueue 	rcvdPk:count 	0
attr interpolationmode  none
attr title  "received packets, count"
scalar WirelessNetwork.Fog1.eth[2].queue.pauseQueue 	rcvdPk:sum(packetBytes) 	0
attr interpolationmode  none
attr title  "received packets, sum(packetBytes)"
scalar WirelessNetwork.Fog1.eth[2].queue.dataQueue 	queueLength:max 	0
attr interpolationmode  sample-hold
attr title  "queue length, max"
scalar WirelessNetwork.Fog1.eth[2].queue.dataQueue 	queueLength:timeavg 	0
attr interpolationmode  sample-hold
attr title  "queue length, timeavg"
statistic WirelessNetwork.Fog1.eth[2].queue.dataQueue 	queueingTime:histogram
field count 0
field mean nan
field stddev nan
field sum 0
field sqrsum 0
field min nan
field max nan
attr interpolationmode  none
attr title  "queueing time, histogram"
bin	-INF	0
bin	-0.5	0
bin	-0.46666666666667	0
bin	-0.43333333333333	0
bin	-0.4	0
bin	-0.36666666666667	0
bin	-0.33333333333333	0
bin	-0.3	0
bin	-0.26666666666667	0
bin	-0.23333333333333	0
bin	-0.2	0
bin	-0.16666666666667	0
bin	-0.13333333333333	0
bin	-0.1	0
bin	-0.066666666666667	0
bin	-0.033333333333333	0
bin	-6.9388939039072e-018	0
bin	0.033333333333333	0
bin	0.066666666666667	0
bin	0.1	0
bin	0.13333333333333	0
bin	0.16666666666667	0
bin	0.2	0
bin	0.23333333333333	0
bin	0.26666666666667	0
bin	0.3	0
bin	0.33333333333333	0
bin	0.36666666666667	0
bin	0.4	0
bin	0.43333333333333	0
bin	0.46666666666667	0
bin	0.5	0
scalar WirelessNetwork.Fog1.eth[2].queue.dataQueue 	dropPk:count 	0
attr interpolationmode  none
attr source  dropPkByQueue
attr title  "dropped packets, count"
scalar WirelessNetwork.Fog1.eth[2].queue.dataQueue 	dropPk:sum(packetBytes) 	0
attr interpolationmode  none
attr source  dropPkByQueue
attr title  "dropped packets, sum(packetBytes)"
scalar WirelessNetwork.Fog1.eth[2].queue.dataQueue 	rcvdPk:count 	0
attr interpolationmode  none
attr title  "received packets, count"
scalar WirelessNetwork.Fog1.eth[2].queue.dataQueue 	rcvdPk:sum(packetBytes) 	0
attr interpolationmode  none
attr title  "received packets, sum(packetBytes)"
scalar WirelessNetwork.Fog1.eth[2].mac 	"simulated time" 	2.93e-005
scalar WirelessNetwork.Fog1.eth[2].mac 	full-duplex 	1
scalar WirelessNetwork.Fog1.eth[2].mac 	"frames/sec sent" 	0
scalar WirelessNetwork.Fog1.eth[2].mac 	"frames/sec rcvd" 	0
scalar WirelessNetwork.Fog1.eth[2].mac 	"bits/sec sent" 	0
scalar WirelessNetwork.Fog1.eth[2].mac 	"bits/sec rcvd" 	0
scalar WirelessNetwork.Fog1.eth[2].mac 	"rx channel idle (%)" 	100
scalar WirelessNetwork.Fog1.eth[2].mac 	"rx channel utilization (%)" 	0
scalar WirelessNetwork.Fog1.eth[2].mac 	rxPkFromHL:count 	0
attr interpolationmode  none
attr source  rxPkFromHL
attr title  "packet bytes from higher layer, count"
scalar WirelessNetwork.Fog1.eth[2].mac 	rxPkFromHL:sum(packetBytes) 	0
attr interpolationmode  none
attr source  rxPkFromHL
attr title  "packet bytes from higher layer, sum(packetBytes)"
scalar WirelessNetwork.Fog1.eth[2].mac 	rxPausePkUnits:count 	0
attr interpolationmode  none
attr title  "pause units received, count"
scalar WirelessNetwork.Fog1.eth[2].mac 	rxPausePkUnits:sum 	0
attr interpolationmode  none
attr title  "pause units received, sum"
scalar WirelessNetwork.Fog1.eth[2].mac 	txPausePkUnits:count 	0
attr interpolationmode  none
attr title  "pause units sent, count"
scalar WirelessNetwork.Fog1.eth[2].mac 	txPausePkUnits:sum 	0
attr interpolationmode  none
attr title  "pause units sent, sum"
scalar WirelessNetwork.Fog1.eth[2].mac 	txPk:count 	0
attr interpolationmode  none
attr source  txPk
attr title  "packets transmitted, count"
scalar WirelessNetwork.Fog1.eth[2].mac 	txPk:sum(packetBytes) 	0
attr interpolationmode  none
attr source  txPk
attr title  "packets transmitted, sum(packetBytes)"
scalar WirelessNetwork.Fog1.eth[2].mac 	droppedPkNotForUs:count 	0
attr interpolationmode  none
attr source  dropPkNotForUs
attr title  "packets dropped/not for us, count"
scalar WirelessNetwork.Fog1.eth[2].mac 	droppedPkNotForUs:sum(packetBytes) 	0
attr interpolationmode  none
attr source  dropPkNotForUs
attr title  "packets dropped/not for us, sum(packetBytes)"
scalar WirelessNetwork.Fog1.eth[2].mac 	droppedPkBitError:count 	0
attr interpolationmode  none
attr source  dropPkBitError
attr title  "packets dropped/bit error, count"
scalar WirelessNetwork.Fog1.eth[2].mac 	droppedPkBitError:sum(packetBytes) 	0
attr interpolationmode  none
attr source  dropPkBitError
attr title  "packets dropped/bit error, sum(packetBytes)"
scalar WirelessNetwork.Fog1.eth[2].mac 	droppedPkIfaceDown:count 	0
attr interpolationmode  none
attr source  dropPkIfaceDown
attr title  "packets dropped/interface down, count"
scalar WirelessNetwork.Fog1.eth[2].mac 	droppedPkIfaceDown:sum(packetBytes) 	0
attr interpolationmode  none
attr source  dropPkIfaceDown
attr title  "packets dropped/interface down, sum(packetBytes)"
scalar WirelessNetwork.Fog1.eth[2].mac 	rxPkOk:count 	0
attr interpolationmode  none
attr source  rxPkOk
attr title  "packets received OK, count"
scalar WirelessNetwork.Fog1.eth[2].mac 	rxPkOk:sum(packetBytes) 	0
attr interpolationmode  none
attr source  rxPkOk
attr title  "packets received OK, sum(packetBytes)"
scalar WirelessNetwork.Fog1.eth[2].mac 	passedUpPk:count 	0
attr interpolationmode  none
attr source  packetSentToUpper
attr title  "packets passed to higher layer, count"
scalar WirelessNetwork.Fog1.eth[2].mac 	passedUpPk:sum(packetBytes) 	0
attr interpolationmode  none
attr source  packetSentToUpper
attr title  "packets passed to higher layer, sum(packetBytes)"
scalar WirelessNetwork.Fog1.eth[2].encap 	pauseSent:count 	0
attr title  "pause sent, count"
scalar WirelessNetwork.Fog1.eth[2].encap 	pauseSent:sum 	0
attr title  "pause sent, sum"
scalar WirelessNetwork.Fog1.eth[2].encap 	decapPk:count 	0
attr interpolationmode  none
attr source  decapPk
attr title  "packets decapsulated, count"
scalar WirelessNetwork.Fog1.eth[2].encap 	decapPk:sum(packetBytes) 	0
attr interpolationmode  none
attr source  decapPk
attr title  "packets decapsulated, sum(packetBytes)"
scalar WirelessNetwork.Fog1.eth[2].encap 	encapPk:count 	0
attr interpolationmode  none
attr source  encapPk
attr title  "packets encapsulated, count"
scalar WirelessNetwork.Fog1.eth[2].encap 	encapPk:sum(packetBytes) 	0
attr interpolationmode  none
attr source  encapPk
attr title  "packets encapsulated, sum(packetBytes)"
scalar WirelessNetwork.Fog1.udpApp[0] 	"packets sent" 	1
scalar WirelessNetwork.Fog1.udpApp[0] 	"packets received" 	0
statistic WirelessNetwork.Fog1.udpApp[0] 	queueTime:stats
field count 0
field mean nan
field stddev nan
field sum 0
field sqrsum 0
field min nan
field max nan
attr interpolationmode  none
attr source  queueTime
attr title  "queueTime, stats"
scalar WirelessNetwork.Fog1.udpApp[0] 	sentPk:count 	0
attr interpolationmode  none
attr source  sentPk
attr title  "packets sent, count"
scalar WirelessNetwork.Fog1.udpApp[0] 	sentPk:sum(packetBytes) 	0
attr interpolationmode  none
attr source  sentPk
attr title  "packets sent, sum(packetBytes)"
scalar WirelessNetwork.Fog1.udpApp[0] 	rcvdPk:count 	0
attr interpolationmode  none
attr source  rcvdPk
attr title  "packets received, count"
scalar WirelessNetwork.Fog1.udpApp[0] 	rcvdPk:sum(packetBytes) 	0
attr interpolationmode  none
attr source  rcvdPk
attr title  "packets received, sum(packetBytes)"
statistic WirelessNetwork.Fog1.udpApp[0] 	rcvdPkLifetime:stats
field count 0
field mean nan
field stddev nan
field sum 0
field sqrsum 0
field min nan
field max nan
attr interpolationmode  none
attr source  messageAge(rcvdPk)
attr title  "received packet lifetime, stats"
attr unit  s
scalar WirelessNetwork.Fog1.udp 	droppedPkBadChecksum:count 	0
attr interpolationmode  none
attr title  "packets dropped (checksum error), count"
scalar WirelessNetwork.Fog1.udp 	droppedPkWrongPort:count 	0
attr interpolationmode  none
attr title  "packets dropped (wrong port), count"
scalar WirelessNetwork.Fog1.udp 	passedUpPk:count 	0
attr interpolationmode  none
attr title  "packets passed up, count"
scalar WirelessNetwork.Fog1.udp 	sentPk:count 	1
attr interpolationmode  none
attr source  sentPk
attr title  "packets sent, count"
scalar WirelessNetwork.Fog1.udp 	sentPk:sum(packetBytes) 	8
attr interpolationmode  none
attr source  sentPk
attr title  "packets sent, sum(packetBytes)"
scalar WirelessNetwork.Fog1.udp 	rcvdPk:count 	0
attr interpolationmode  none
attr source  rcvdPk
attr title  "packets received, count"
scalar WirelessNetwork.Fog1.udp 	rcvdPk:sum(packetBytes) 	0
attr interpolationmode  none
attr source  rcvdPk
attr title  "packets received, sum(packetBytes)"
scalar WirelessNetwork.Fog2.networkLayer.arp 	sentReply:count 	0
attr title  "ARP replies sent, count"
scalar WirelessNetwork.Fog2.networkLayer.arp 	sentReq:count 	1
attr title  "ARP request sent, count"
scalar WirelessNetwork.Fog2.networkLayer.arp 	failedARPResolution:count 	0
attr title  "ARP failed resolutions, count"
scalar WirelessNetwork.Fog2.networkLayer.arp 	completedARPResolution:count 	1
attr title  "ARP completed resolutions, count"
scalar WirelessNetwork.Fog2.networkLayer.arp 	initiatedARPResolution:count 	1
attr title  "ARP initiated resolutions, count"
scalar WirelessNetwork.Fog2.lo0.lo 	droppedPkBitError:count 	0
attr interpolationmode  none
attr source  dropPkBitError
attr title  "packets dropped/bit error, count"
scalar WirelessNetwork.Fog2.lo0.lo 	droppedPkBitError:sum(packetBytes) 	0
attr interpolationmode  none
attr source  dropPkBitError
attr title  "packets dropped/bit error, sum(packetBytes)"
scalar WirelessNetwork.Fog2.lo0.lo 	rcvdPkFromHL:count 	0
attr interpolationmode  none
attr source  packetReceivedFromUpper
attr title  "packets received from higher layer, count"
scalar WirelessNetwork.Fog2.lo0.lo 	rcvdPkFromHL:sum(packetBytes) 	0
attr interpolationmode  none
attr source  packetReceivedFromUpper
attr title  "packets received from higher layer, sum(packetBytes)"
scalar WirelessNetwork.Fog2.lo0.lo 	passedUpPk:count 	0
attr interpolationmode  none
attr source  packetSentToUpper
attr title  "packets passed to higher layer, count"
scalar WirelessNetwork.Fog2.lo0.lo 	passedUpPk:sum(packetBytes) 	0
attr interpolationmode  none
attr source  packetSentToUpper
attr title  "packets passed to higher layer, sum(packetBytes)"
scalar WirelessNetwork.Fog2.eth[0].queue.pauseQueue 	queueLength:max 	0
attr interpolationmode  sample-hold
attr title  "queue length, max"
scalar WirelessNetwork.Fog2.eth[0].queue.pauseQueue 	queueLength:timeavg 	0
attr interpolationmode  sample-hold
attr title  "queue length, timeavg"
statistic WirelessNetwork.Fog2.eth[0].queue.pauseQueue 	queueingTime:histogram
field count 0
field mean nan
field stddev nan
field sum 0
field sqrsum 0
field min nan
field max nan
attr interpolationmode  none
attr title  "queueing time, histogram"
bin	-INF	0
bin	-0.5	0
bin	-0.46666666666667	0
bin	-0.43333333333333	0
bin	-0.4	0
bin	-0.36666666666667	0
bin	-0.33333333333333	0
bin	-0.3	0
bin	-0.26666666666667	0
bin	-0.23333333333333	0
bin	-0.2	0
bin	-0.16666666666667	0
bin	-0.13333333333333	0
bin	-0.1	0
bin	-0.066666666666667	0
bin	-0.033333333333333	0
bin	-6.9388939039072e-018	0
bin	0.033333333333333	0
bin	0.066666666666667	0
bin	0.1	0
bin	0.13333333333333	0
bin	0.16666666666667	0
bin	0.2	0
bin	0.23333333333333	0
bin	0.26666666666667	0
bin	0.3	0
bin	0.33333333333333	0
bin	0.36666666666667	0
bin	0.4	0
bin	0.43333333333333	0
bin	0.46666666666667	0
bin	0.5	0
scalar WirelessNetwork.Fog2.eth[0].queue.pauseQueue 	dropPk:count 	0
attr interpolationmode  none
attr source  dropPkByQueue
attr title  "dropped packets, count"
scalar WirelessNetwork.Fog2.eth[0].queue.pauseQueue 	dropPk:sum(packetBytes) 	0
attr interpolationmode  none
attr source  dropPkByQueue
attr title  "dropped packets, sum(packetBytes)"
scalar WirelessNetwork.Fog2.eth[0].queue.pauseQueue 	rcvdPk:count 	0
attr interpolationmode  none
attr title  "received packets, count"
scalar WirelessNetwork.Fog2.eth[0].queue.pauseQueue 	rcvdPk:sum(packetBytes) 	0
attr interpolationmode  none
attr title  "received packets, sum(packetBytes)"
scalar WirelessNetwork.Fog2.eth[0].queue.dataQueue 	queueLength:max 	1
attr interpolationmode  sample-hold
attr title  "queue length, max"
scalar WirelessNetwork.Fog2.eth[0].queue.dataQueue 	queueLength:timeavg 	0
attr interpolationmode  sample-hold
attr title  "queue length, timeavg"
statistic WirelessNetwork.Fog2.eth[0].queue.dataQueue 	queueingTime:histogram
field count 2
field mean 0
field stddev 0
field sum 0
field sqrsum 0
field min 0
field max 0
attr interpolationmode  none
attr title  "queueing time, histogram"
bin	-INF	0
bin	-0.5	0
bin	-0.46666666666667	0
bin	-0.43333333333333	0
bin	-0.4	0
bin	-0.36666666666667	0
bin	-0.33333333333333	0
bin	-0.3	0
bin	-0.26666666666667	0
bin	-0.23333333333333	0
bin	-0.2	0
bin	-0.16666666666667	0
bin	-0.13333333333333	0
bin	-0.1	0
bin	-0.066666666666667	0
bin	-0.033333333333333	0
bin	-6.9388939039072e-018	2
bin	0.033333333333333	0
bin	0.066666666666667	0
bin	0.1	0
bin	0.13333333333333	0
bin	0.16666666666667	0
bin	0.2	0
bin	0.23333333333333	0
bin	0.26666666666667	0
bin	0.3	0
bin	0.33333333333333	0
bin	0.36666666666667	0
bin	0.4	0
bin	0.43333333333333	0
bin	0.46666666666667	0
bin	0.5	0
scalar WirelessNetwork.Fog2.eth[0].queue.dataQueue 	dropPk:count 	0
attr interpolationmode  none
attr source  dropPkByQueue
attr title  "dropped packets, count"
scalar WirelessNetwork.Fog2.eth[0].queue.dataQueue 	dropPk:sum(packetBytes) 	0
attr interpolationmode  none
attr source  dropPkByQueue
attr title  "dropped packets, sum(packetBytes)"
scalar WirelessNetwork.Fog2.eth[0].queue.dataQueue 	rcvdPk:count 	2
attr interpolationmode  none
attr title  "received packets, count"
scalar WirelessNetwork.Fog2.eth[0].queue.dataQueue 	rcvdPk:sum(packetBytes) 	128
attr interpolationmode  none
attr title  "received packets, sum(packetBytes)"
scalar WirelessNetwork.Fog2.eth[0].mac 	"simulated time" 	2.93e-005
scalar WirelessNetwork.Fog2.eth[0].mac 	full-duplex 	1
scalar WirelessNetwork.Fog2.eth[0].mac 	"frames/sec sent" 	68259.385665529
scalar WirelessNetwork.Fog2.eth[0].mac 	"frames/sec rcvd" 	34129.692832765
scalar WirelessNetwork.Fog2.eth[0].mac 	"bits/sec sent" 	34948805.460751
scalar WirelessNetwork.Fog2.eth[0].mac 	"bits/sec rcvd" 	17474402.730375
scalar WirelessNetwork.Fog2.eth[0].mac 	"rx channel idle (%)" 	80.341296928328
scalar WirelessNetwork.Fog2.eth[0].mac 	"rx channel utilization (%)" 	19.658703071672
scalar WirelessNetwork.Fog2.eth[0].mac 	rxPkFromHL:count 	2
attr interpolationmode  none
attr source  rxPkFromHL
attr title  "packet bytes from higher layer, count"
scalar WirelessNetwork.Fog2.eth[0].mac 	rxPkFromHL:sum(packetBytes) 	128
attr interpolationmode  none
attr source  rxPkFromHL
attr title  "packet bytes from higher layer, sum(packetBytes)"
scalar WirelessNetwork.Fog2.eth[0].mac 	rxPausePkUnits:count 	0
attr interpolationmode  none
attr title  "pause units received, count"
scalar WirelessNetwork.Fog2.eth[0].mac 	rxPausePkUnits:sum 	0
attr interpolationmode  none
attr title  "pause units received, sum"
scalar WirelessNetwork.Fog2.eth[0].mac 	txPausePkUnits:count 	0
attr interpolationmode  none
attr title  "pause units sent, count"
scalar WirelessNetwork.Fog2.eth[0].mac 	txPausePkUnits:sum 	0
attr interpolationmode  none
attr title  "pause units sent, sum"
scalar WirelessNetwork.Fog2.eth[0].mac 	txPk:count 	2
attr interpolationmode  none
attr source  txPk
attr title  "packets transmitted, count"
scalar WirelessNetwork.Fog2.eth[0].mac 	txPk:sum(packetBytes) 	128
attr interpolationmode  none
attr source  txPk
attr title  "packets transmitted, sum(packetBytes)"
scalar WirelessNetwork.Fog2.eth[0].mac 	droppedPkNotForUs:count 	0
attr interpolationmode  none
attr source  dropPkNotForUs
attr title  "packets dropped/not for us, count"
scalar WirelessNetwork.Fog2.eth[0].mac 	droppedPkNotForUs:sum(packetBytes) 	0
attr interpolationmode  none
attr source  dropPkNotForUs
attr title  "packets dropped/not for us, sum(packetBytes)"
scalar WirelessNetwork.Fog2.eth[0].mac 	droppedPkBitError:count 	0
attr interpolationmode  none
attr source  dropPkBitError
attr title  "packets dropped/bit error, count"
scalar WirelessNetwork.Fog2.eth[0].mac 	droppedPkBitError:sum(packetBytes) 	0
attr interpolationmode  none
attr source  dropPkBitError
attr title  "packets dropped/bit error, sum(packetBytes)"
scalar WirelessNetwork.Fog2.eth[0].mac 	droppedPkIfaceDown:count 	0
attr interpolationmode  none
attr source  dropPkIfaceDown
attr title  "packets dropped/interface down, count"
scalar WirelessNetwork.Fog2.eth[0].mac 	droppedPkIfaceDown:sum(packetBytes) 	0
attr interpolationmode  none
attr source  dropPkIfaceDown
attr title  "packets dropped/interface down, sum(packetBytes)"
scalar WirelessNetwork.Fog2.eth[0].mac 	rxPkOk:count 	1
attr interpolationmode  none
attr source  rxPkOk
attr title  "packets received OK, count"
scalar WirelessNetwork.Fog2.eth[0].mac 	rxPkOk:sum(packetBytes) 	64
attr interpolationmode  none
attr source  rxPkOk
attr title  "packets received OK, sum(packetBytes)"
scalar WirelessNetwork.Fog2.eth[0].mac 	passedUpPk:count 	1
attr interpolationmode  none
attr source  packetSentToUpper
attr title  "packets passed to higher layer, count"
scalar WirelessNetwork.Fog2.eth[0].mac 	passedUpPk:sum(packetBytes) 	64
attr interpolationmode  none
attr source  packetSentToUpper
attr title  "packets passed to higher layer, sum(packetBytes)"
scalar WirelessNetwork.Fog2.eth[0].encap 	pauseSent:count 	0
attr title  "pause sent, count"
scalar WirelessNetwork.Fog2.eth[0].encap 	pauseSent:sum 	0
attr title  "pause sent, sum"
scalar WirelessNetwork.Fog2.eth[0].encap 	decapPk:count 	1
attr interpolationmode  none
attr source  decapPk
attr title  "packets decapsulated, count"
scalar WirelessNetwork.Fog2.eth[0].encap 	decapPk:sum(packetBytes) 	28
attr interpolationmode  none
attr source  decapPk
attr title  "packets decapsulated, sum(packetBytes)"
scalar WirelessNetwork.Fog2.eth[0].encap 	encapPk:count 	2
attr interpolationmode  none
attr source  encapPk
attr title  "packets encapsulated, count"
scalar WirelessNetwork.Fog2.eth[0].encap 	encapPk:sum(packetBytes) 	56
attr interpolationmode  none
attr source  encapPk
attr title  "packets encapsulated, sum(packetBytes)"
scalar WirelessNetwork.Fog2.udpApp[0] 	"packets sent" 	1
scalar WirelessNetwork.Fog2.udpApp[0] 	"packets received" 	0
statistic WirelessNetwork.Fog2.udpApp[0] 	queueTime:stats
field count 0
field mean nan
field stddev nan
field sum 0
field sqrsum 0
field min nan
field max nan
attr interpolationmode  none
attr source  queueTime
attr title  "queueTime, stats"
scalar WirelessNetwork.Fog2.udpApp[0] 	sentPk:count 	0
attr interpolationmode  none
attr source  sentPk
attr title  "packets sent, count"
scalar WirelessNetwork.Fog2.udpApp[0] 	sentPk:sum(packetBytes) 	0
attr interpolationmode  none
attr source  sentPk
attr title  "packets sent, sum(packetBytes)"
scalar WirelessNetwork.Fog2.udpApp[0] 	rcvdPk:count 	0
attr interpolationmode  none
attr source  rcvdPk
attr title  "packets received, count"
scalar WirelessNetwork.Fog2.udpApp[0] 	rcvdPk:sum(packetBytes) 	0
attr interpolationmode  none
attr source  rcvdPk
attr title  "packets received, sum(packetBytes)"
statistic WirelessNetwork.Fog2.udpApp[0] 	rcvdPkLifetime:stats
field count 0
field mean nan
field stddev nan
field sum 0
field sqrsum 0
field min nan
field max nan
attr interpolationmode  none
attr source  messageAge(rcvdPk)
attr title  "received packet lifetime, stats"
attr unit  s
scalar WirelessNetwork.Fog2.udp 	droppedPkBadChecksum:count 	0
attr interpolationmode  none
attr title  "packets dropped (checksum error), count"
scalar WirelessNetwork.Fog2.udp 	droppedPkWrongPort:count 	0
attr interpolationmode  none
attr title  "packets dropped (wrong port), count"
scalar WirelessNetwork.Fog2.udp 	passedUpPk:count 	0
attr interpolationmode  none
attr title  "packets passed up, count"
scalar WirelessNetwork.Fog2.udp 	sentPk:count 	1
attr interpolationmode  none
attr source  sentPk
attr title  "packets sent, count"
scalar WirelessNetwork.Fog2.udp 	sentPk:sum(packetBytes) 	8
attr interpolationmode  none
attr source  sentPk
attr title  "packets sent, sum(packetBytes)"
scalar WirelessNetwork.Fog2.udp 	rcvdPk:count 	0
attr interpolationmode  none
attr source  rcvdPk
attr title  "packets received, count"
scalar WirelessNetwork.Fog2.udp 	rcvdPk:sum(packetBytes) 	0
attr interpolationmode  none
attr source  rcvdPk
attr title  "packets received, sum(packetBytes)"
scalar WirelessNetwork.BaseBroker.networkLayer.arp 	sentReply:count 	1
attr title  "ARP replies sent, count"
scalar WirelessNetwork.BaseBroker.networkLayer.arp 	sentReq:count 	0
attr title  "ARP request sent, count"
scalar WirelessNetwork.BaseBroker.networkLayer.arp 	failedARPResolution:count 	0
attr title  "ARP failed resolutions, count"
scalar WirelessNetwork.BaseBroker.networkLayer.arp 	completedARPResolution:count 	1
attr title  "ARP completed resolutions, count"
scalar WirelessNetwork.BaseBroker.networkLayer.arp 	initiatedARPResolution:count 	0
attr title  "ARP initiated resolutions, count"
scalar WirelessNetwork.BaseBroker.lo0.lo 	droppedPkBitError:count 	0
attr interpolationmode  none
attr source  dropPkBitError
attr title  "packets dropped/bit error, count"
scalar WirelessNetwork.BaseBroker.lo0.lo 	droppedPkBitError:sum(packetBytes) 	0
attr interpolationmode  none
attr source  dropPkBitError
attr title  "packets dropped/bit error, sum(packetBytes)"
scalar WirelessNetwork.BaseBroker.lo0.lo 	rcvdPkFromHL:count 	0
attr interpolationmode  none
attr source  packetReceivedFromUpper
attr title  "packets received from higher layer, count"
scalar WirelessNetwork.BaseBroker.lo0.lo 	rcvdPkFromHL:sum(packetBytes) 	0
attr interpolationmode  none
attr source  packetReceivedFromUpper
attr title  "packets received from higher layer, sum(packetBytes)"
scalar WirelessNetwork.BaseBroker.lo0.lo 	passedUpPk:count 	0
attr interpolationmode  none
attr source  packetSentToUpper
attr title  "packets passed to higher layer, count"
scalar WirelessNetwork.BaseBroker.lo0.lo 	passedUpPk:sum(packetBytes) 	0
attr interpolationmode  none
attr source  packetSentToUpper
attr title  "packets passed to higher layer, sum(packetBytes)"
scalar WirelessNetwork.BaseBroker.eth[0].queue.pauseQueue 	queueLength:max 	0
attr interpolationmode  sample-hold
attr title  "queue length, max"
scalar WirelessNetwork.BaseBroker.eth[0].queue.pauseQueue 	queueLength:timeavg 	0
attr interpolationmode  sample-hold
attr title  "queue length, timeavg"
statistic WirelessNetwork.BaseBroker.eth[0].queue.pauseQueue 	queueingTime:histogram
field count 0
field mean nan
field stddev nan
field sum 0
field sqrsum 0
field min nan
field max nan
attr interpolationmode  none
attr title  "queueing time, histogram"
bin	-INF	0
bin	-0.5	0
bin	-0.46666666666667	0
bin	-0.43333333333333	0
bin	-0.4	0
bin	-0.36666666666667	0
bin	-0.33333333333333	0
bin	-0.3	0
bin	-0.26666666666667	0
bin	-0.23333333333333	0
bin	-0.2	0
bin	-0.16666666666667	0
bin	-0.13333333333333	0
bin	-0.1	0
bin	-0.066666666666667	0
bin	-0.033333333333333	0
bin	-6.9388939039072e-018	0
bin	0.033333333333333	0
bin	0.066666666666667	0
bin	0.1	0
bin	0.13333333333333	0
bin	0.16666666666667	0
bin	0.2	0
bin	0.23333333333333	0
bin	0.26666666666667	0
bin	0.3	0
bin	0.33333333333333	0
bin	0.36666666666667	0
bin	0.4	0
bin	0.43333333333333	0
bin	0.46666666666667	0
bin	0.5	0
scalar WirelessNetwork.BaseBroker.eth[0].queue.pauseQueue 	dropPk:count 	0
attr interpolationmode  none
attr source  dropPkByQueue
attr title  "dropped packets, count"
scalar WirelessNetwork.BaseBroker.eth[0].queue.pauseQueue 	dropPk:sum(packetBytes) 	0
attr interpolationmode  none
attr source  dropPkByQueue
attr title  "dropped packets, sum(packetBytes)"
scalar WirelessNetwork.BaseBroker.eth[0].queue.pauseQueue 	rcvdPk:count 	0
attr interpolationmode  none
attr title  "received packets, count"
scalar WirelessNetwork.BaseBroker.eth[0].queue.pauseQueue 	rcvdPk:sum(packetBytes) 	0
attr interpolationmode  none
attr title  "received packets, sum(packetBytes)"
scalar WirelessNetwork.BaseBroker.eth[0].queue.dataQueue 	queueLength:max 	1
attr interpolationmode  sample-hold
attr title  "queue length, max"
scalar WirelessNetwork.BaseBroker.eth[0].queue.dataQueue 	queueLength:timeavg 	0
attr interpolationmode  sample-hold
attr title  "queue length, timeavg"
statistic WirelessNetwork.BaseBroker.eth[0].queue.dataQueue 	queueingTime:histogram
field count 1
field mean 0
field stddev nan
field sum 0
field sqrsum 0
field min 0
field max 0
attr interpolationmode  none
attr title  "queueing time, histogram"
bin	-INF	0
bin	-0.5	0
bin	-0.46666666666667	0
bin	-0.43333333333333	0
bin	-0.4	0
bin	-0.36666666666667	0
bin	-0.33333333333333	0
bin	-0.3	0
bin	-0.26666666666667	0
bin	-0.23333333333333	0
bin	-0.2	0
bin	-0.16666666666667	0
bin	-0.13333333333333	0
bin	-0.1	0
bin	-0.066666666666667	0
bin	-0.033333333333333	0
bin	-6.9388939039072e-018	1
bin	0.033333333333333	0
bin	0.066666666666667	0
bin	0.1	0
bin	0.13333333333333	0
bin	0.16666666666667	0
bin	0.2	0
bin	0.23333333333333	0
bin	0.26666666666667	0
bin	0.3	0
bin	0.33333333333333	0
bin	0.36666666666667	0
bin	0.4	0
bin	0.43333333333333	0
bin	0.46666666666667	0
bin	0.5	0
scalar WirelessNetwork.BaseBroker.eth[0].queue.dataQueue 	dropPk:count 	0
attr interpolationmode  none
attr source  dropPkByQueue
attr title  "dropped packets, count"
scalar WirelessNetwork.BaseBroker.eth[0].queue.dataQueue 	dropPk:sum(packetBytes) 	0
attr interpolationmode  none
attr source  dropPkByQueue
attr title  "dropped packets, sum(packetBytes)"
scalar WirelessNetwork.BaseBroker.eth[0].queue.dataQueue 	rcvdPk:count 	1
attr interpolationmode  none
attr title  "received packets, count"
scalar WirelessNetwork.BaseBroker.eth[0].queue.dataQueue 	rcvdPk:sum(packetBytes) 	64
attr interpolationmode  none
attr title  "received packets, sum(packetBytes)"
scalar WirelessNetwork.BaseBroker.eth[0].mac 	"simulated time" 	2.93e-005
scalar WirelessNetwork.BaseBroker.eth[0].mac 	full-duplex 	1
scalar WirelessNetwork.BaseBroker.eth[0].mac 	"frames/sec sent" 	34129.692832765
scalar WirelessNetwork.BaseBroker.eth[0].mac 	"frames/sec rcvd" 	34129.692832765
scalar WirelessNetwork.BaseBroker.eth[0].mac 	"bits/sec sent" 	17474402.730375
scalar WirelessNetwork.BaseBroker.eth[0].mac 	"bits/sec rcvd" 	17474402.730375
scalar WirelessNetwork.BaseBroker.eth[0].mac 	"rx channel idle (%)" 	80.341296928328
scalar WirelessNetwork.BaseBroker.eth[0].mac 	"rx channel utilization (%)" 	19.658703071672
scalar WirelessNetwork.BaseBroker.eth[0].mac 	rxPkFromHL:count 	1
attr interpolationmode  none
attr source  rxPkFromHL
attr title  "packet bytes from higher layer, count"
scalar WirelessNetwork.BaseBroker.eth[0].mac 	rxPkFromHL:sum(packetBytes) 	64
attr interpolationmode  none
attr source  rxPkFromHL
attr title  "packet bytes from higher layer, sum(packetBytes)"
scalar WirelessNetwork.BaseBroker.eth[0].mac 	rxPausePkUnits:count 	0
attr interpolationmode  none
attr title  "pause units received, count"
scalar WirelessNetwork.BaseBroker.eth[0].mac 	rxPausePkUnits:sum 	0
attr interpolationmode  none
attr title  "pause units received, sum"
scalar WirelessNetwork.BaseBroker.eth[0].mac 	txPausePkUnits:count 	0
attr interpolationmode  none
attr title  "pause units sent, count"
scalar WirelessNetwork.BaseBroker.eth[0].mac 	txPausePkUnits:sum 	0
attr interpolationmode  none
attr title  "pause units sent, sum"
scalar WirelessNetwork.BaseBroker.eth[0].mac 	txPk:count 	1
attr interpolationmode  none
attr source  txPk
attr title  "packets transmitted, count"
scalar WirelessNetwork.BaseBroker.eth[0].mac 	txPk:sum(packetBytes) 	64
attr interpolationmode  none
attr source  txPk
attr title  "packets transmitted, sum(packetBytes)"
scalar WirelessNetwork.BaseBroker.eth[0].mac 	droppedPkNotForUs:count 	0
attr interpolationmode  none
attr source  dropPkNotForUs
attr title  "packets dropped/not for us, count"
scalar WirelessNetwork.BaseBroker.eth[0].mac 	droppedPkNotForUs:sum(packetBytes) 	0
attr interpolationmode  none
attr source  dropPkNotForUs
attr title  "packets dropped/not for us, sum(packetBytes)"
scalar WirelessNetwork.BaseBroker.eth[0].mac 	droppedPkBitError:count 	0
attr interpolationmode  none
attr source  dropPkBitError
attr title  "packets dropped/bit error, count"
scalar WirelessNetwork.BaseBroker.eth[0].mac 	droppedPkBitError:sum(packetBytes) 	0
attr interpolationmode  none
attr source  dropPkBitError
attr title  "packets dropped/bit error, sum(packetBytes)"
scalar WirelessNetwork.BaseBroker.eth[0].mac 	droppedPkIfaceDown:count 	0
attr interpolationmode  none
attr source  dropPkIfaceDown
attr title  "packets dropped/interface down, count"
scalar WirelessNetwork.BaseBroker.eth[0].mac 	droppedPkIfaceDown:sum(packetBytes) 	0
attr interpolationmode  none
attr source  dropPkIfaceDown
attr title  "packets dropped/interface down, sum(packetBytes)"
scalar WirelessNetwork.BaseBroker.eth[0].mac 	rxPkOk:count 	1
attr interpolationmode  none
attr source  rxPkOk
attr title  "packets received OK, count"
scalar WirelessNetwork.BaseBroker.eth[0].mac 	rxPkOk:sum(packetBytes) 	64
attr interpolationmode  none
attr source  rxPkOk
attr title  "packets received OK, sum(packetBytes)"
scalar WirelessNetwork.BaseBroker.eth[0].mac 	passedUpPk:count 	1
attr interpolationmode  none
attr source  packetSentToUpper
attr title  "packets passed to higher layer, count"
scalar WirelessNetwork.BaseBroker.eth[0].mac 	passedUpPk:sum(packetBytes) 	64
attr interpolationmode  none
attr source  packetSentToUpper
attr title  "packets passed to higher layer, sum(packetBytes)"
scalar WirelessNetwork.BaseBroker.eth[0].encap 	pauseSent:count 	0
attr title  "pause sent, count"
scalar WirelessNetwork.BaseBroker.eth[0].encap 	pauseSent:sum 	0
attr title  "pause sent, sum"
scalar WirelessNetwork.BaseBroker.eth[0].encap 	decapPk:count 	1
attr interpolationmode  none
attr source  decapPk
attr title  "packets decapsulated, count"
scalar WirelessNetwork.BaseBroker.eth[0].encap 	decapPk:sum(packetBytes) 	28
attr interpolationmode  none
attr source  decapPk
attr title  "packets decapsulated, sum(packetBytes)"
scalar WirelessNetwork.BaseBroker.eth[0].encap 	encapPk:count 	1
attr interpolationmode  none
attr source  encapPk
attr title  "packets encapsulated, count"
scalar WirelessNetwork.BaseBroker.eth[0].encap 	encapPk:sum(packetBytes) 	28
attr interpolationmode  none
attr source  encapPk
attr title  "packets encapsulated, sum(packetBytes)"
scalar WirelessNetwork.BaseBroker.eth[1].queue.pauseQueue 	queueLength:max 	0
attr interpolationmode  sample-hold
attr title  "queue length, max"
scalar WirelessNetwork.BaseBroker.eth[1].queue.pauseQueue 	queueLength:timeavg 	0
attr interpolationmode  sample-hold
attr title  "queue length, timeavg"
statistic WirelessNetwork.BaseBroker.eth[1].queue.pauseQueue 	queueingTime:histogram
field count 0
field mean nan
field stddev nan
field sum 0
field sqrsum 0
field min nan
field max nan
attr interpolationmode  none
attr title  "queueing time, histogram"
bin	-INF	0
bin	-0.5	0
bin	-0.46666666666667	0
bin	-0.43333333333333	0
bin	-0.4	0
bin	-0.36666666666667	0
bin	-0.33333333333333	0
bin	-0.3	0
bin	-0.26666666666667	0
bin	-0.23333333333333	0
bin	-0.2	0
bin	-0.16666666666667	0
bin	-0.13333333333333	0
bin	-0.1	0
bin	-0.066666666666667	0
bin	-0.033333333333333	0
bin	-6.9388939039072e-018	0
bin	0.033333333333333	0
bin	0.066666666666667	0
bin	0.1	0
bin	0.13333333333333	0
bin	0.16666666666667	0
bin	0.2	0
bin	0.23333333333333	0
bin	0.26666666666667	0
bin	0.3	0
bin	0.33333333333333	0
bin	0.36666666666667	0
bin	0.4	0
bin	0.43333333333333	0
bin	0.46666666666667	0
bin	0.5	0
scalar WirelessNetwork.BaseBroker.eth[1].queue.pauseQueue 	dropPk:count 	0
attr interpolationmode  none
attr source  dropPkByQueue
attr title  "dropped packets, count"
scalar WirelessNetwork.BaseBroker.eth[1].queue.pauseQueue 	dropPk:sum(packetBytes) 	0
attr interpolationmode  none
attr source  dropPkByQueue
attr title  "dropped packets, sum(packetBytes)"
scalar WirelessNetwork.BaseBroker.eth[1].queue.pauseQueue 	rcvdPk:count 	0
attr interpolationmode  none
attr title  "received packets, count"
scalar WirelessNetwork.BaseBroker.eth[1].queue.pauseQueue 	rcvdPk:sum(packetBytes) 	0
attr interpolationmode  none
attr title  "received packets, sum(packetBytes)"
scalar WirelessNetwork.BaseBroker.eth[1].queue.dataQueue 	queueLength:max 	0
attr interpolationmode  sample-hold
attr title  "queue length, max"
scalar WirelessNetwork.BaseBroker.eth[1].queue.dataQueue 	queueLength:timeavg 	0
attr interpolationmode  sample-hold
attr title  "queue length, timeavg"
statistic WirelessNetwork.BaseBroker.eth[1].queue.dataQueue 	queueingTime:histogram
field count 0
field mean nan
field stddev nan
field sum 0
field sqrsum 0
field min nan
field max nan
attr interpolationmode  none
attr title  "queueing time, histogram"
bin	-INF	0
bin	-0.5	0
bin	-0.46666666666667	0
bin	-0.43333333333333	0
bin	-0.4	0
bin	-0.36666666666667	0
bin	-0.33333333333333	0
bin	-0.3	0
bin	-0.26666666666667	0
bin	-0.23333333333333	0
bin	-0.2	0
bin	-0.16666666666667	0
bin	-0.13333333333333	0
bin	-0.1	0
bin	-0.066666666666667	0
bin	-0.033333333333333	0
bin	-6.9388939039072e-018	0
bin	0.033333333333333	0
bin	0.066666666666667	0
bin	0.1	0
bin	0.13333333333333	0
bin	0.16666666666667	0
bin	0.2	0
bin	0.23333333333333	0
bin	0.26666666666667	0
bin	0.3	0
bin	0.33333333333333	0
bin	0.36666666666667	0
bin	0.4	0
bin	0.43333333333333	0
bin	0.46666666666667	0
bin	0.5	0
scalar WirelessNetwork.BaseBroker.eth[1].queue.dataQueue 	dropPk:count 	0
attr interpolationmode  none
attr source  dropPkByQueue
attr title  "dropped packets, count"
scalar WirelessNetwork.BaseBroker.eth[1].queue.dataQueue 	dropPk:sum(packetBytes) 	0
attr interpolationmode  none
attr source  dropPkByQueue
attr title  "dropped packets, sum(packetBytes)"
scalar WirelessNetwork.BaseBroker.eth[1].queue.dataQueue 	rcvdPk:count 	0
attr interpolationmode  none
attr title  "received packets, count"
scalar WirelessNetwork.BaseBroker.eth[1].queue.dataQueue 	rcvdPk:sum(packetBytes) 	0
attr interpolationmode  none
attr title  "received packets, sum(packetBytes)"
scalar WirelessNetwork.BaseBroker.eth[1].mac 	"simulated time" 	2.93e-005
scalar WirelessNetwork.BaseBroker.eth[1].mac 	full-duplex 	1
scalar WirelessNetwork.BaseBroker.eth[1].mac 	"frames/sec sent" 	0
scalar WirelessNetwork.BaseBroker.eth[1].mac 	"frames/sec rcvd" 	0
scalar WirelessNetwork.BaseBroker.eth[1].mac 	"bits/sec sent" 	0
scalar WirelessNetwork.BaseBroker.eth[1].mac 	"bits/sec rcvd" 	0
scalar WirelessNetwork.BaseBroker.eth[1].mac 	"rx channel idle (%)" 	100
scalar WirelessNetwork.BaseBroker.eth[1].mac 	"rx channel utilization (%)" 	0
scalar WirelessNetwork.BaseBroker.eth[1].mac 	rxPkFromHL:count 	0
attr interpolationmode  none
attr source  rxPkFromHL
attr title  "packet bytes from higher layer, count"
scalar WirelessNetwork.BaseBroker.eth[1].mac 	rxPkFromHL:sum(packetBytes) 	0
attr interpolationmode  none
attr source  rxPkFromHL
attr title  "packet bytes from higher layer, sum(packetBytes)"
scalar WirelessNetwork.BaseBroker.eth[1].mac 	rxPausePkUnits:count 	0
attr interpolationmode  none
attr title  "pause units received, count"
scalar WirelessNetwork.BaseBroker.eth[1].mac 	rxPausePkUnits:sum 	0
attr interpolationmode  none
attr title  "pause units received, sum"
scalar WirelessNetwork.BaseBroker.eth[1].mac 	txPausePkUnits:count 	0
attr interpolationmode  none
attr title  "pause units sent, count"
scalar WirelessNetwork.BaseBroker.eth[1].mac 	txPausePkUnits:sum 	0
attr interpolationmode  none
attr title  "pause units sent, sum"
scalar WirelessNetwork.BaseBroker.eth[1].mac 	txPk:count 	0
attr interpolationmode  none
attr source  txPk
attr title  "packets transmitted, count"
scalar WirelessNetwork.BaseBroker.eth[1].mac 	txPk:sum(packetBytes) 	0
attr interpolationmode  none
attr source  txPk
attr title  "packets transmitted, sum(packetBytes)"
scalar WirelessNetwork.BaseBroker.eth[1].mac 	droppedPkNotForUs:count 	0
attr interpolationmode  none
attr source  dropPkNotForUs
attr title  "packets dropped/not for us, count"
scalar WirelessNetwork.BaseBroker.eth[1].mac 	droppedPkNotForUs:sum(packetBytes) 	0
attr interpolationmode  none
attr source  dropPkNotForUs
attr title  "packets dropped/not for us, sum(packetBytes)"
scalar WirelessNetwork.BaseBroker.eth[1].mac 	droppedPkBitError:count 	0
attr interpolationmode  none
attr source  dropPkBitError
attr title  "packets dropped/bit error, count"
scalar WirelessNetwork.BaseBroker.eth[1].mac 	droppedPkBitError:sum(packetBytes) 	0
attr interpolationmode  none
attr source  dropPkBitError
attr title  "packets dropped/bit error, sum(packetBytes)"
scalar WirelessNetwork.BaseBroker.eth[1].mac 	droppedPkIfaceDown:count 	0
attr interpolationmode  none
attr source  dropPkIfaceDown
attr title  "packets dropped/interface down, count"
scalar WirelessNetwork.BaseBroker.eth[1].mac 	droppedPkIfaceDown:sum(packetBytes) 	0
attr interpolationmode  none
attr source  dropPkIfaceDown
attr title  "packets dropped/interface down, sum(packetBytes)"
scalar WirelessNetwork.BaseBroker.eth[1].mac 	rxPkOk:count 	0
attr interpolationmode  none
attr source  rxPkOk
attr title  "packets received OK, count"
scalar WirelessNetwork.BaseBroker.eth[1].mac 	rxPkOk:sum(packetBytes) 	0
attr interpolationmode  none
attr source  rxPkOk
attr title  "packets received OK, sum(packetBytes)"
scalar WirelessNetwork.BaseBroker.eth[1].mac 	passedUpPk:count 	0
attr interpolationmode  none
attr source  packetSentToUpper
attr title  "packets passed to higher layer, count"
scalar WirelessNetwork.BaseBroker.eth[1].mac 	passedUpPk:sum(packetBytes) 	0
attr interpolationmode  none
attr source  packetSentToUpper
attr title  "packets passed to higher layer, sum(packetBytes)"
scalar WirelessNetwork.BaseBroker.eth[1].encap 	pauseSent:count 	0
attr title  "pause sent, count"
scalar WirelessNetwork.BaseBroker.eth[1].encap 	pauseSent:sum 	0
attr title  "pause sent, sum"
scalar WirelessNetwork.BaseBroker.eth[1].encap 	decapPk:count 	0
attr interpolationmode  none
attr source  decapPk
attr title  "packets decapsulated, count"
scalar WirelessNetwork.BaseBroker.eth[1].encap 	decapPk:sum(packetBytes) 	0
attr interpolationmode  none
attr source  decapPk
attr title  "packets decapsulated, sum(packetBytes)"
scalar WirelessNetwork.BaseBroker.eth[1].encap 	encapPk:count 	0
attr interpolationmode  none
attr source  encapPk
attr title  "packets encapsulated, count"
scalar WirelessNetwork.BaseBroker.eth[1].encap 	encapPk:sum(packetBytes) 	0
attr interpolationmode  none
attr source  encapPk
attr title  "packets encapsulated, sum(packetBytes)"
scalar WirelessNetwork.BaseBroker.eth[2].queue.pauseQueue 	queueLength:max 	0
attr interpolationmode  sample-hold
attr title  "queue length, max"
scalar WirelessNetwork.BaseBroker.eth[2].queue.pauseQueue 	queueLength:timeavg 	0
attr interpolationmode  sample-hold
attr title  "queue length, timeavg"
statistic WirelessNetwork.BaseBroker.eth[2].queue.pauseQueue 	queueingTime:histogram
field count 0
field mean nan
field stddev nan
field sum 0
field sqrsum 0
field min nan
field max nan
attr interpolationmode  none
attr title  "queueing time, histogram"
bin	-INF	0
bin	-0.5	0
bin	-0.46666666666667	0
bin	-0.43333333333333	0
bin	-0.4	0
bin	-0.36666666666667	0
bin	-0.33333333333333	0
bin	-0.3	0
bin	-0.26666666666667	0
bin	-0.23333333333333	0
bin	-0.2	0
bin	-0.16666666666667	0
bin	-0.13333333333333	0
bin	-0.1	0
bin	-0.066666666666667	0
bin	-0.033333333333333	0
bin	-6.9388939039072e-018	0
bin	0.033333333333333	0
bin	0.066666666666667	0
bin	0.1	0
bin	0.13333333333333	0
bin	0.16666666666667	0
bin	0.2	0
bin	0.23333333333333	0
bin	0.26666666666667	0
bin	0.3	0
bin	0.33333333333333	0
bin	0.36666666666667	0
bin	0.4	0
bin	0.43333333333333	0
bin	0.46666666666667	0
bin	0.5	0
scalar WirelessNetwork.BaseBroker.eth[2].queue.pauseQueue 	dropPk:count 	0
attr interpolationmode  none
attr source  dropPkByQueue
attr title  "dropped packets, count"
scalar WirelessNetwork.BaseBroker.eth[2].queue.pauseQueue 	dropPk:sum(packetBytes) 	0
attr interpolationmode  none
attr source  dropPkByQueue
attr title  "dropped packets, sum(packetBytes)"
scalar WirelessNetwork.BaseBroker.eth[2].queue.pauseQueue 	rcvdPk:count 	0
attr interpolationmode  none
attr title  "received packets, count"
scalar WirelessNetwork.BaseBroker.eth[2].queue.pauseQueue 	rcvdPk:sum(packetBytes) 	0
attr interpolationmode  none
attr title  "received packets, sum(packetBytes)"
scalar WirelessNetwork.BaseBroker.eth[2].queue.dataQueue 	queueLength:max 	0
attr interpolationmode  sample-hold
attr title  "queue length, max"
scalar WirelessNetwork.BaseBroker.eth[2].queue.dataQueue 	queueLength:timeavg 	0
attr interpolationmode  sample-hold
attr title  "queue length, timeavg"
statistic WirelessNetwork.BaseBroker.eth[2].queue.dataQueue 	queueingTime:histogram
field count 0
field mean nan
field stddev nan
field sum 0
field sqrsum 0
field min nan
field max nan
attr interpolationmode  none
attr title  "queueing time, histogram"
bin	-INF	0
bin	-0.5	0
bin	-0.46666666666667	0
bin	-0.43333333333333	0
bin	-0.4	0
bin	-0.36666666666667	0
bin	-0.33333333333333	0
bin	-0.3	0
bin	-0.26666666666667	0
bin	-0.23333333333333	0
bin	-0.2	0
bin	-0.16666666666667	0
bin	-0.13333333333333	0
bin	-0.1	0
bin	-0.066666666666667	0
bin	-0.033333333333333	0
bin	-6.9388939039072e-018	0
bin	0.033333333333333	0
bin	0.066666666666667	0
bin	0.1	0
bin	0.13333333333333	0
bin	0.16666666666667	0
bin	0.2	0
bin	0.23333333333333	0
bin	0.26666666666667	0
bin	0.3	0
bin	0.33333333333333	0
bin	0.36666666666667	0
bin	0.4	0
bin	0.43333333333333	0
bin	0.46666666666667	0
bin	0.5	0
scalar WirelessNetwork.BaseBroker.eth[2].queue.dataQueue 	dropPk:count 	0
attr interpolationmode  none
attr source  dropPkByQueue
attr title  "dropped packets, count"
scalar WirelessNetwork.BaseBroker.eth[2].queue.dataQueue 	dropPk:sum(packetBytes) 	0
attr interpolationmode  none
attr source  dropPkByQueue
attr title  "dropped packets, sum(packetBytes)"
scalar WirelessNetwork.BaseBroker.eth[2].queue.dataQueue 	rcvdPk:count 	0
attr interpolationmode  none
attr title  "received packets, count"
scalar WirelessNetwork.BaseBroker.eth[2].queue.dataQueue 	rcvdPk:sum(packetBytes) 	0
attr interpolationmode  none
attr title  "received packets, sum(packetBytes)"
scalar WirelessNetwork.BaseBroker.eth[2].mac 	"simulated time" 	2.93e-005
scalar WirelessNetwork.BaseBroker.eth[2].mac 	full-duplex 	1
scalar WirelessNetwork.BaseBroker.eth[2].mac 	"frames/sec sent" 	0
scalar WirelessNetwork.BaseBroker.eth[2].mac 	"frames/sec rcvd" 	0
scalar WirelessNetwork.BaseBroker.eth[2].mac 	"bits/sec sent" 	0
scalar WirelessNetwork.BaseBroker.eth[2].mac 	"bits/sec rcvd" 	0
scalar WirelessNetwork.BaseBroker.eth[2].mac 	"rx channel idle (%)" 	100
scalar WirelessNetwork.BaseBroker.eth[2].mac 	"rx channel utilization (%)" 	0
scalar WirelessNetwork.BaseBroker.eth[2].mac 	rxPkFromHL:count 	0
attr interpolationmode  none
attr source  rxPkFromHL
attr title  "packet bytes from higher layer, count"
scalar WirelessNetwork.BaseBroker.eth[2].mac 	rxPkFromHL:sum(packetBytes) 	0
attr interpolationmode  none
attr source  rxPkFromHL
attr title  "packet bytes from higher layer, sum(packetBytes)"
scalar WirelessNetwork.BaseBroker.eth[2].mac 	rxPausePkUnits:count 	0
attr interpolationmode  none
attr title  "pause units received, count"
scalar WirelessNetwork.BaseBroker.eth[2].mac 	rxPausePkUnits:sum 	0
attr interpolationmode  none
attr title  "pause units received, sum"
scalar WirelessNetwork.BaseBroker.eth[2].mac 	txPausePkUnits:count 	0
attr interpolationmode  none
attr title  "pause units sent, count"
scalar WirelessNetwork.BaseBroker.eth[2].mac 	txPausePkUnits:sum 	0
attr interpolationmode  none
attr title  "pause units sent, sum"
scalar WirelessNetwork.BaseBroker.eth[2].mac 	txPk:count 	0
attr interpolationmode  none
attr source  txPk
attr title  "packets transmitted, count"
scalar WirelessNetwork.BaseBroker.eth[2].mac 	txPk:sum(packetBytes) 	0
attr interpolationmode  none
attr source  txPk
attr title  "packets transmitted, sum(packetBytes)"
scalar WirelessNetwork.BaseBroker.eth[2].mac 	droppedPkNotForUs:count 	0
attr interpolationmode  none
attr source  dropPkNotForUs
attr title  "packets dropped/not for us, count"
scalar WirelessNetwork.BaseBroker.eth[2].mac 	droppedPkNotForUs:sum(packetBytes) 	0
attr interpolationmode  none
attr source  dropPkNotForUs
attr title  "packets dropped/not for us, sum(packetBytes)"
scalar WirelessNetwork.BaseBroker.eth[2].mac 	droppedPkBitError:count 	0
attr interpolationmode  none
attr source  dropPkBitError
attr title  "packets dropped/bit error, count"
scalar WirelessNetwork.BaseBroker.eth[2].mac 	droppedPkBitError:sum(packetBytes) 	0
attr interpolationmode  none
attr source  dropPkBitError
attr title  "packets dropped/bit error, sum(packetBytes)"
scalar WirelessNetwork.BaseBroker.eth[2].mac 	droppedPkIfaceDown:count 	0
attr interpolationmode  none
attr source  dropPkIfaceDown
attr title  "packets dropped/interface down, count"
scalar WirelessNetwork.BaseBroker.eth[2].mac 	droppedPkIfaceDown:sum(packetBytes) 	0
attr interpolationmode  none
attr source  dropPkIfaceDown
attr title  "packets dropped/interface down, sum(packetBytes)"
scalar WirelessNetwork.BaseBroker.eth[2].mac 	rxPkOk:count 	0
attr interpolationmode  none
attr source  rxPkOk
attr title  "packets received OK, count"
scalar WirelessNetwork.BaseBroker.eth[2].mac 	rxPkOk:sum(packetBytes) 	0
attr interpolationmode  none
attr source  rxPkOk
attr title  "packets received OK, sum(packetBytes)"
scalar WirelessNetwork.BaseBroker.eth[2].mac 	passedUpPk:count 	0
attr interpolationmode  none
attr source  packetSentToUpper
attr title  "packets passed to higher layer, count"
scalar WirelessNetwork.BaseBroker.eth[2].mac 	passedUpPk:sum(packetBytes) 	0
attr interpolationmode  none
attr source  packetSentToUpper
attr title  "packets passed to higher layer, sum(packetBytes)"
scalar WirelessNetwork.BaseBroker.eth[2].encap 	pauseSent:count 	0
attr title  "pause sent, count"
scalar WirelessNetwork.BaseBroker.eth[2].encap 	pauseSent:sum 	0
attr title  "pause sent, sum"
scalar WirelessNetwork.BaseBroker.eth[2].encap 	decapPk:count 	0
attr interpolationmode  none
attr source  decapPk
attr title  "packets decapsulated, count"
scalar WirelessNetwork.BaseBroker.eth[2].encap 	decapPk:sum(packetBytes) 	0
attr interpolationmode  none
attr source  decapPk
attr title  "packets decapsulated, sum(packetBytes)"
scalar WirelessNetwork.BaseBroker.eth[2].encap 	encapPk:count 	0
attr interpolationmode  none
attr source  encapPk
attr title  "packets encapsulated, count"
scalar WirelessNetwork.BaseBroker.eth[2].encap 	encapPk:sum(packetBytes) 	0
attr interpolationmode  none
attr source  encapPk
attr title  "packets encapsulated, sum(packetBytes)"
scalar WirelessNetwork.BaseBroker.udpApp[0] 	delay 	86
statistic WirelessNetwork.BaseBroker.udpApp[0] 	delay:stats
field count 0
field mean nan
field stddev nan
field sum 0
field sqrsum 0
field min nan
field max nan
attr interpolationmode  none
attr source  delay
attr title  "delay, stats"
scalar WirelessNetwork.BaseBroker.udpApp[0] 	echoedPk:count 	0
attr interpolationmode  none
attr source  pk
attr title  "packets echoed, count"
scalar WirelessNetwork.BaseBroker.udpApp[0] 	echoedPk:sum(packetBytes) 	0
attr interpolationmode  none
attr source  pk
attr title  "packets echoed, sum(packetBytes)"
scalar WirelessNetwork.BaseBroker.udp 	droppedPkBadChecksum:count 	0
attr interpolationmode  none
attr title  "packets dropped (checksum error), count"
scalar WirelessNetwork.BaseBroker.udp 	droppedPkWrongPort:count 	0
attr interpolationmode  none
attr title  "packets dropped (wrong port), count"
scalar WirelessNetwork.BaseBroker.udp 	passedUpPk:count 	0
attr interpolationmode  none
attr title  "packets passed up, count"
scalar WirelessNetwork.BaseBroker.udp 	sentPk:count 	0
attr interpolationmode  none
attr source  sentPk
attr title  "packets sent, count"
scalar WirelessNetwork.BaseBroker.udp 	sentPk:sum(packetBytes) 	0
attr interpolationmode  none
attr source  sentPk
attr title  "packets sent, sum(packetBytes)"
scalar WirelessNetwork.BaseBroker.udp 	rcvdPk:count 	0
attr interpolationmode  none
attr source  rcvdPk
attr title  "packets received, count"
scalar WirelessNetwork.BaseBroker.udp 	rcvdPk:sum(packetBytes) 	0
attr interpolationmode  none
attr source  rcvdPk
attr title  "packets received, sum(packetBytes)"
scalar WirelessNetwork.user.networkLayer.arp 	sentReply:count 	0
attr title  "ARP replies sent, count"
scalar WirelessNetwork.user.networkLayer.arp 	sentReq:count 	1
attr title  "ARP request sent, count"
scalar WirelessNetwork.user.networkLayer.arp 	failedARPResolution:count 	0
attr title  "ARP failed resolutions, count"
scalar WirelessNetwork.user.networkLayer.arp 	completedARPResolution:count 	0
attr title  "ARP completed resolutions, count"
scalar WirelessNetwork.user.networkLayer.arp 	initiatedARPResolution:count 	1
attr title  "ARP initiated resolutions, count"
scalar WirelessNetwork.user.lo0.lo 	droppedPkBitError:count 	0
attr interpolationmode  none
attr source  dropPkBitError
attr title  "packets dropped/bit error, count"
scalar WirelessNetwork.user.lo0.lo 	droppedPkBitError:sum(packetBytes) 	0
attr interpolationmode  none
attr source  dropPkBitError
attr title  "packets dropped/bit error, sum(packetBytes)"
scalar WirelessNetwork.user.lo0.lo 	rcvdPkFromHL:count 	0
attr interpolationmode  none
attr source  packetReceivedFromUpper
attr title  "packets received from higher layer, count"
scalar WirelessNetwork.user.lo0.lo 	rcvdPkFromHL:sum(packetBytes) 	0
attr interpolationmode  none
attr source  packetReceivedFromUpper
attr title  "packets received from higher layer, sum(packetBytes)"
scalar WirelessNetwork.user.lo0.lo 	passedUpPk:count 	0
attr interpolationmode  none
attr source  packetSentToUpper
attr title  "packets passed to higher layer, count"
scalar WirelessNetwork.user.lo0.lo 	passedUpPk:sum(packetBytes) 	0
attr interpolationmode  none
attr source  packetSentToUpper
attr title  "packets passed to higher layer, sum(packetBytes)"
scalar WirelessNetwork.user.wlan[0].agent 	dropConfirm:count 	0
attr title  "dropped confirms, count"
scalar WirelessNetwork.user.wlan[0].agent 	acceptConfirm:count 	0
attr title  "accepted confirms, count"
scalar WirelessNetwork.user.wlan[0].agent 	sentRequest:count 	0
attr title  "sent requests, count"
scalar WirelessNetwork.user.wlan[0].mac.statistics 	numReceivedUnicast 	0
scalar WirelessNetwork.user.wlan[0].mac.statistics 	numReceivedBroadcast 	0
scalar WirelessNetwork.user.wlan[0].mac.statistics 	numReceivedMulticast 	0
scalar WirelessNetwork.user.wlan[0].mac.statistics 	numReceivedNotForUs 	0
scalar WirelessNetwork.user.wlan[0].mac.statistics 	numReceivedErroneous 	0
scalar WirelessNetwork.user.wlan[0].mac 	rcvdPkFromHL:count 	0
attr interpolationmode  none
attr source  packetReceivedFromUpper
attr title  "packets received from higher layer, count"
scalar WirelessNetwork.user.wlan[0].mac 	rcvdPkFromHL:sum(packetBytes) 	0
attr interpolationmode  none
attr source  packetReceivedFromUpper
attr title  "packets received from higher layer, sum(packetBytes)"
scalar WirelessNetwork.user.wlan[0].mac 	passedUpPk:count 	0
attr interpolationmode  none
attr source  packetSentToUpper
attr title  "packets passed to higher layer, count"
scalar WirelessNetwork.user.wlan[0].mac 	passedUpPk:sum(packetBytes) 	0
attr interpolationmode  none
attr source  packetSentToUpper
attr title  "packets passed to higher layer, sum(packetBytes)"
scalar WirelessNetwork.user.wlan[0].mac 	rcvdPkFromLL:count 	0
attr interpolationmode  none
attr source  packetReceivedFromLower
attr title  "packets received from lower layer, count"
scalar WirelessNetwork.user.wlan[0].mac 	rcvdPkFromLL:sum(packetBytes) 	0
attr interpolationmode  none
attr source  packetReceivedFromLower
attr title  "packets received from lower layer, sum(packetBytes)"
scalar WirelessNetwork.user.wlan[0].mac 	sentDownPk:count 	0
attr interpolationmode  none
attr source  packetSentToLower
attr title  "packets sent to lower layer, count"
scalar WirelessNetwork.user.wlan[0].mac 	sentDownPk:sum(packetBytes) 	0
attr interpolationmode  none
attr source  packetSentToLower
attr title  "packets sent to lower layer, sum(packetBytes)"
statistic WirelessNetwork.user.wlan[0].radio 	symbolErrorRate:histogram
field count 0
field mean nan
field stddev nan
field sum 0
field sqrsum 0
field min nan
field max nan
attr source  symbolErrorRate
attr title  "Symbol error rate, histogram"
bin	-INF	0
bin	-0.5	0
bin	-0.46666666666667	0
bin	-0.43333333333333	0
bin	-0.4	0
bin	-0.36666666666667	0
bin	-0.33333333333333	0
bin	-0.3	0
bin	-0.26666666666667	0
bin	-0.23333333333333	0
bin	-0.2	0
bin	-0.16666666666667	0
bin	-0.13333333333333	0
bin	-0.1	0
bin	-0.066666666666667	0
bin	-0.033333333333333	0
bin	-6.9388939039072e-018	0
bin	0.033333333333333	0
bin	0.066666666666667	0
bin	0.1	0
bin	0.13333333333333	0
bin	0.16666666666667	0
bin	0.2	0
bin	0.23333333333333	0
bin	0.26666666666667	0
bin	0.3	0
bin	0.33333333333333	0
bin	0.36666666666667	0
bin	0.4	0
bin	0.43333333333333	0
bin	0.46666666666667	0
bin	0.5	0
statistic WirelessNetwork.user.wlan[0].radio 	bitErrorRate:histogram
field count 0
field mean nan
field stddev nan
field sum 0
field sqrsum 0
field min nan
field max nan
attr source  bitErrorRate
attr title  "Bit error rate, histogram"
bin	-INF	0
bin	-0.5	0
bin	-0.46666666666667	0
bin	-0.43333333333333	0
bin	-0.4	0
bin	-0.36666666666667	0
bin	-0.33333333333333	0
bin	-0.3	0
bin	-0.26666666666667	0
bin	-0.23333333333333	0
bin	-0.2	0
bin	-0.16666666666667	0
bin	-0.13333333333333	0
bin	-0.1	0
bin	-0.066666666666667	0
bin	-0.033333333333333	0
bin	-6.9388939039072e-018	0
bin	0.033333333333333	0
bin	0.066666666666667	0
bin	0.1	0
bin	0.13333333333333	0
bin	0.16666666666667	0
bin	0.2	0
bin	0.23333333333333	0
bin	0.26666666666667	0
bin	0.3	0
bin	0.33333333333333	0
bin	0.36666666666667	0
bin	0.4	0
bin	0.43333333333333	0
bin	0.46666666666667	0
bin	0.5	0
statistic WirelessNetwork.user.wlan[0].radio 	packetErrorRate:histogram
field count 0
field mean nan
field stddev nan
field sum 0
field sqrsum 0
field min nan
field max nan
attr source  packetErrorRate
attr title  "Packet error rate, histogram"
bin	-INF	0
bin	-0.5	0
bin	-0.46666666666667	0
bin	-0.43333333333333	0
bin	-0.4	0
bin	-0.36666666666667	0
bin	-0.33333333333333	0
bin	-0.3	0
bin	-0.26666666666667	0
bin	-0.23333333333333	0
bin	-0.2	0
bin	-0.16666666666667	0
bin	-0.13333333333333	0
bin	-0.1	0
bin	-0.066666666666667	0
bin	-0.033333333333333	0
bin	-6.9388939039072e-018	0
bin	0.033333333333333	0
bin	0.066666666666667	0
bin	0.1	0
bin	0.13333333333333	0
bin	0.16666666666667	0
bin	0.2	0
bin	0.23333333333333	0
bin	0.26666666666667	0
bin	0.3	0
bin	0.33333333333333	0
bin	0.36666666666667	0
bin	0.4	0
bin	0.43333333333333	0
bin	0.46666666666667	0
bin	0.5	0
statistic WirelessNetwork.user.wlan[0].radio 	minSNIR:histogram
field count 0
field mean nan
field stddev nan
field sum 0
field sqrsum 0
field min nan
field max nan
attr source  minSNIR
attr title  "Min SNIR, histogram"
bin	-INF	0
bin	-0.5	0
bin	-0.46666666666667	0
bin	-0.43333333333333	0
bin	-0.4	0
bin	-0.36666666666667	0
bin	-0.33333333333333	0
bin	-0.3	0
bin	-0.26666666666667	0
bin	-0.23333333333333	0
bin	-0.2	0
bin	-0.16666666666667	0
bin	-0.13333333333333	0
bin	-0.1	0
bin	-0.066666666666667	0
bin	-0.033333333333333	0
bin	-6.9388939039072e-018	0
bin	0.033333333333333	0
bin	0.066666666666667	0
bin	0.1	0
bin	0.13333333333333	0
bin	0.16666666666667	0
bin	0.2	0
bin	0.23333333333333	0
bin	0.26666666666667	0
bin	0.3	0
bin	0.33333333333333	0
bin	0.36666666666667	0
bin	0.4	0
bin	0.43333333333333	0
bin	0.46666666666667	0
bin	0.5	0
scalar WirelessNetwork.user.wlan[0].radio 	transmissionState:count 	0
attr interpolationmode  sample-hold
attr source  transmissionStateChanged
attr title  "Radio transmission state, count"
scalar WirelessNetwork.user.wlan[0].radio 	receptionState:count 	1
attr interpolationmode  sample-hold
attr source  receptionStateChanged
attr title  "Radio reception state, count"
scalar WirelessNetwork.user.wlan[0].radio 	radioMode:count 	2
attr interpolationmode  sample-hold
attr source  radioModeChanged
attr title  "Radio mode, count"
statistic WirelessNetwork.user.wlan[0].radio 	radioChannel:histogram
field count 1
field mean 0
field stddev nan
field sum 0
field sqrsum 0
field min 0
field max 0
attr interpolationmode  sample-hold
attr source  radioChannelChanged
attr title  "Radio channel, histogram"
bin	-INF	0
bin	-0.5	0
bin	-0.46666666666667	0
bin	-0.43333333333333	0
bin	-0.4	0
bin	-0.36666666666667	0
bin	-0.33333333333333	0
bin	-0.3	0
bin	-0.26666666666667	0
bin	-0.23333333333333	0
bin	-0.2	0
bin	-0.16666666666667	0
bin	-0.13333333333333	0
bin	-0.1	0
bin	-0.066666666666667	0
bin	-0.033333333333333	0
bin	-6.9388939039072e-018	1
bin	0.033333333333333	0
bin	0.066666666666667	0
bin	0.1	0
bin	0.13333333333333	0
bin	0.16666666666667	0
bin	0.2	0
bin	0.23333333333333	0
bin	0.26666666666667	0
bin	0.3	0
bin	0.33333333333333	0
bin	0.36666666666667	0
bin	0.4	0
bin	0.43333333333333	0
bin	0.46666666666667	0
bin	0.5	0
scalar WirelessNetwork.user.udpApp[0] 	"packets sent" 	1
scalar WirelessNetwork.user.udpApp[0] 	"packets received" 	0
scalar WirelessNetwork.user.udpApp[0] 	latency 	172
scalar WirelessNetwork.user.udpApp[0] 	latencyH1 	173
statistic WirelessNetwork.user.udpApp[0] 	taskTime:stats
field count 0
field mean nan
field stddev nan
field sum 0
field sqrsum 0
field min nan
field max nan
attr interpolationmode  none
attr source  taskTime
attr title  "taskTime, stats"
statistic WirelessNetwork.user.udpApp[0] 	latencyH1:stats
field count 0
field mean nan
field stddev nan
field sum 0
field sqrsum 0
field min nan
field max nan
attr interpolationmode  none
attr source  latencyH1
attr title  "latency, stats"
statistic WirelessNetwork.user.udpApp[0] 	latency:stats
field count 0
field mean nan
field stddev nan
field sum 0
field sqrsum 0
field min nan
field max nan
attr interpolationmode  none
attr source  latency
attr title  "latency, stats"
scalar WirelessNetwork.user.udpApp[0] 	sentPk:count 	0
attr interpolationmode  none
attr source  sentPk
attr title  "packets sent, count"
scalar WirelessNetwork.user.udpApp[0] 	sentPk:sum(packetBytes) 	0
attr interpolationmode  none
attr source  sentPk
attr title  "packets sent, sum(packetBytes)"
scalar WirelessNetwork.user.udpApp[0] 	rcvdPk:count 	0
[...]
attr title  "queue length, max"
scalar WirelessNetwork.ap1.eth[0].queue.dataQueue 	queueLength:timeavg 	0
attr interpolationmode  sample-hold
attr title  "queue length, timeavg"
statistic WirelessNetwork.ap1.eth[0].queue.dataQueue 	queueingTime:histogram
field count 0
field mean nan
field stddev nan
field sum 0
field sqrsum 0
field min nan
field max nan
attr interpolationmode  none
attr title  "queueing time, histogram"
bin	-INF	0
bin	-0.5	0
bin	-0.46666666666667	0
bin	-0.43333333333333	0
bin	-0.4	0
bin	-0.36666666666667	0
bin	-0.33333333333333	0
bin	-0.3	0
bin	-0.26666666666667	0
bin	-0.23333333333333	0
bin	-0.2	0
bin	-0.16666666666667	0
bin	-0.13333333333333	0
bin	-0.1	0
bin	-0.066666666666667	0
bin	-0.033333333333333	0
bin	-6.9388939039072e-018	0
bin	0.033333333333333	0
bin	0.066666666666667	0
bin	0.1	0
bin	0.13333333333333	0
bin	0.16666666666667	0
bin	0.2	0
bin	0.23333333333333	0
bin	0.26666666666667	0
bin	0.3	0
bin	0.33333333333333	0
bin	0.36666666666667	0
bin	0.4	0
bin	0.43333333333333	0
bin	0.46666666666667	0
bin	0.5	0
scalar WirelessNetwork.ap1.eth[0].queue.dataQueue 	dropPk:count 	0
attr interpolationmode  none
attr source  dropPkByQueue
attr title  "dropped packets, count"
scalar WirelessNetwork.ap1.eth[0].queue.dataQueue 	dropPk:sum(packetBytes) 	0
attr interpolationmode  none
attr source  dropPkByQueue
attr title  "dropped packets, sum(packetBytes)"
scalar WirelessNetwork.ap1.eth[0].queue.dataQueue 	rcvdPk:count 	0
attr interpolationmode  none
attr title  "received packets, count"
scalar WirelessNetwork.ap1.eth[0].queue.dataQueue 	rcvdPk:sum(packetBytes) 	0
attr interpolationmode  none
attr title  "received packets, sum(packetBytes)"
scalar WirelessNetwork.ap1.eth[0].mac 	"simulated time" 	2.93e-005
scalar WirelessNetwork.ap1.eth[0].mac 	full-duplex 	1
scalar WirelessNetwork.ap1.eth[0].mac 	"frames/sec sent" 	0
scalar WirelessNetwork.ap1.eth[0].mac 	"frames/sec rcvd" 	0
scalar WirelessNetwork.ap1.eth[0].mac 	"bits/sec sent" 	0
scalar WirelessNetwork.ap1.eth[0].mac 	"bits/sec rcvd" 	0
scalar WirelessNetwork.ap1.eth[0].mac 	"rx channel idle (%)" 	100
scalar WirelessNetwork.ap1.eth[0].mac 	"rx channel utilization (%)" 	0
scalar WirelessNetwork.ap1.eth[0].mac 	rxPkFromHL:count 	0
attr interpolationmode  none
attr source  rxPkFromHL
attr title  "packet bytes from higher layer, count"
scalar WirelessNetwork.ap1.eth[0].mac 	rxPkFromHL:sum(packetBytes) 	0
attr interpolationmode  none
attr source  rxPkFromHL
attr title  "packet bytes from higher layer, sum(packetBytes)"
scalar WirelessNetwork.ap1.eth[0].mac 	rxPausePkUnits:count 	0
attr interpolationmode  none
attr title  "pause units received, count"
scalar WirelessNetwork.ap1.eth[0].mac 	rxPausePkUnits:sum 	0
attr interpolationmode  none
attr title  "pause units received, sum"
scalar WirelessNetwork.ap1.eth[0].mac 	txPausePkUnits:count 	0
attr interpolationmode  none
attr title  "pause units sent, count"
scalar WirelessNetwork.ap1.eth[0].mac 	txPausePkUnits:sum 	0
attr interpolationmode  none
attr title  "pause units sent, sum"
scalar WirelessNetwork.ap1.eth[0].mac 	txPk:count 	0
attr interpolationmode  none
attr source  txPk
attr title  "packets transmitted, count"
scalar WirelessNetwork.ap1.eth[0].mac 	txPk:sum(packetBytes) 	0
attr interpolationmode  none
attr source  txPk
attr title  "packets transmitted, sum(packetBytes)"
scalar WirelessNetwork.ap1.eth[0].mac 	droppedPkNotForUs:count 	0
attr interpolationmode  none
attr source  dropPkNotForUs
attr title  "packets dropped/not for us, count"
scalar WirelessNetwork.ap1.eth[0].mac 	droppedPkNotForUs:sum(packetBytes) 	0
attr interpolationmode  none
attr source  dropPkNotForUs
attr title  "packets dropped/not for us, sum(packetBytes)"
scalar WirelessNetwork.ap1.eth[0].mac 	droppedPkBitError:count 	0
attr interpolationmode  none
attr source  dropPkBitError
attr title  "packets dropped/bit error, count"
scalar WirelessNetwork.ap1.eth[0].mac 	droppedPkBitError:sum(packetBytes) 	0
attr interpolationmode  none
attr source  dropPkBitError
attr title  "packets dropped/bit error, sum(packetBytes)"
scalar WirelessNetwork.ap1.eth[0].mac 	droppedPkIfaceDown:count 	0
attr interpolationmode  none
attr source  dropPkIfaceDown
attr title  "packets dropped/interface down, count"
scalar WirelessNetwork.ap1.eth[0].mac 	droppedPkIfaceDown:sum(packetBytes) 	0
attr interpolationmode  none
attr source  dropPkIfaceDown
attr title  "packets dropped/interface down, sum(packetBytes)"
scalar WirelessNetwork.ap1.eth[0].mac 	rxPkOk:count 	0
attr interpolationmode  none
attr source  rxPkOk
attr title  "packets received OK, count"
scalar WirelessNetwork.ap1.eth[0].mac 	rxPkOk:sum(packetBytes) 	0
attr interpolationmode  none
attr source  rxPkOk
attr title  "packets received OK, sum(packetBytes)"
scalar WirelessNetwork.ap1.eth[0].mac 	passedUpPk:count 	0
attr interpolationmode  none
attr source  packetSentToUpper
attr title  "packets passed to higher layer, count"
scalar WirelessNetwork.ap1.eth[0].mac 	passedUpPk:sum(packetBytes) 	0
attr interpolationmode  none
attr source  packetSentToUpper
attr title  "packets passed to higher layer, sum(packetBytes)"
scalar WirelessNetwork.ap2.relayUnit 	"number of received BPDUs from STP module" 	0
scalar WirelessNetwork.ap2.relayUnit 	"number of received frames from network (including BPDUs)" 	0
scalar WirelessNetwork.ap2.relayUnit 	"number of dropped frames (including BPDUs)" 	0
scalar WirelessNetwork.ap2.relayUnit 	"number of delivered BPDUs to the STP module" 	0
scalar WirelessNetwork.ap2.relayUnit 	"number of dispatched BPDU frames to the network" 	0
scalar WirelessNetwork.ap2.relayUnit 	"number of dispatched non-BDPU frames to the network" 	0
scalar WirelessNetwork.ap2.wlan[0].mac.statistics 	numReceivedUnicast 	0
scalar WirelessNetwork.ap2.wlan[0].mac.statistics 	numReceivedBroadcast 	0
scalar WirelessNetwork.ap2.wlan[0].mac.statistics 	numReceivedMulticast 	0
scalar WirelessNetwork.ap2.wlan[0].mac.statistics 	numReceivedNotForUs 	0
scalar WirelessNetwork.ap2.wlan[0].mac.statistics 	numReceivedErroneous 	0
scalar WirelessNetwork.ap2.wlan[0].mac 	rcvdPkFromHL:count 	0
attr interpolationmode  none
attr source  packetReceivedFromUpper
attr title  "packets received from higher layer, count"
scalar WirelessNetwork.ap2.wlan[0].mac 	rcvdPkFromHL:sum(packetBytes) 	0
attr interpolationmode  none
attr source  packetReceivedFromUpper
attr title  "packets received from higher layer, sum(packetBytes)"
scalar WirelessNetwork.ap2.wlan[0].mac 	passedUpPk:count 	0
attr interpolationmode  none
attr source  packetSentToUpper
attr title  "packets passed to higher layer, count"
scalar WirelessNetwork.ap2.wlan[0].mac 	passedUpPk:sum(packetBytes) 	0
attr interpolationmode  none
attr source  packetSentToUpper
attr title  "packets passed to higher layer, sum(packetBytes)"
scalar WirelessNetwork.ap2.wlan[0].mac 	rcvdPkFromLL:count 	0
attr interpolationmode  none
attr source  packetReceivedFromLower
attr title  "packets received from lower layer, count"
scalar WirelessNetwork.ap2.wlan[0].mac 	rcvdPkFromLL:sum(packetBytes) 	0
attr interpolationmode  none
attr source  packetReceivedFromLower
attr title  "packets received from lower layer, sum(packetBytes)"
scalar WirelessNetwork.ap2.wlan[0].mac 	sentDownPk:count 	0
attr interpolationmode  none
attr source  packetSentToLower
attr title  "packets sent to lower layer, count"
scalar WirelessNetwork.ap2.wlan[0].mac 	sentDownPk:sum(packetBytes) 	0
attr interpolationmode  none
attr source  packetSentToLower
attr title  "packets sent to lower layer, sum(packetBytes)"
statistic WirelessNetwork.ap2.wlan[0].radio 	symbolErrorRate:histogram
field count 0
field mean nan
field stddev nan
field sum 0
field sqrsum 0
field min nan
field max nan
attr source  symbolErrorRate
attr title  "Symbol error rate, histogram"
bin	-INF	0
bin	-0.5	0
bin	-0.46666666666667	0
bin	-0.43333333333333	0
bin	-0.4	0
bin	-0.36666666666667	0
bin	-0.33333333333333	0
bin	-0.3	0
bin	-0.26666666666667	0
bin	-0.23333333333333	0
bin	-0.2	0
bin	-0.16666666666667	0
bin	-0.13333333333333	0
bin	-0.1	0
bin	-0.066666666666667	0
bin	-0.033333333333333	0
bin	-6.9388939039072e-018	0
bin	0.033333333333333	0
bin	0.066666666666667	0
bin	0.1	0
bin	0.13333333333333	0
bin	0.16666666666667	0
bin	0.2	0
bin	0.23333333333333	0
bin	0.26666666666667	0
bin	0.3	0
bin	0.33333333333333	0
bin	0.36666666666667	0
bin	0.4	0
bin	0.43333333333333	0
bin	0.46666666666667	0
bin	0.5	0
statistic WirelessNetwork.ap2.wlan[0].radio 	bitErrorRate:histogram
field count 0
field mean nan
field stddev nan
field sum 0
field sqrsum 0
field min nan
field max nan
attr source  bitErrorRate
attr title  "Bit error rate, histogram"
bin	-INF	0
bin	-0.5	0
bin	-0.46666666666667	0
bin	-0.43333333333333	0
bin	-0.4	0
bin	-0.36666666666667	0
bin	-0.33333333333333	0
bin	-0.3	0
bin	-0.26666666666667	0
bin	-0.23333333333333	0
bin	-0.2	0
bin	-0.16666666666667	0
bin	-0.13333333333333	0
bin	-0.1	0
bin	-0.066666666666667	0
bin	-0.033333333333333	0
bin	-6.9388939039072e-018	0
bin	0.033333333333333	0
bin	0.066666666666667	0
bin	0.1	0
bin	0.13333333333333	0
bin	0.16666666666667	0
bin	0.2	0
bin	0.23333333333333	0
bin	0.26666666666667	0
bin	0.3	0
bin	0.33333333333333	0
bin	0.36666666666667	0
bin	0.4	0
bin	0.43333333333333	0
bin	0.46666666666667	0
bin	0.5	0
statistic WirelessNetwork.ap2.wlan[0].radio 	packetErrorRate:histogram
field count 0
field mean nan
field stddev nan
field sum 0
field sqrsum 0
field min nan
field max nan
attr source  packetErrorRate
attr title  "Packet error rate, histogram"
bin	-INF	0
bin	-0.5	0
bin	-0.46666666666667	0
bin	-0.43333333333333	0
bin	-0.4	0
bin	-0.36666666666667	0
bin	-0.33333333333333	0
bin	-0.3	0
bin	-0.26666666666667	0
bin	-0.23333333333333	0
bin	-0.2	0
bin	-0.16666666666667	0
bin	-0.13333333333333	0
bin	-0.1	0
bin	-0.066666666666667	0
bin	-0.033333333333333	0
bin	-6.9388939039072e-018	0
bin	0.033333333333333	0
bin	0.066666666666667	0
bin	0.1	0
bin	0.13333333333333	0
bin	0.16666666666667	0
bin	0.2	0
bin	0.23333333333333	0
bin	0.26666666666667	0
bin	0.3	0
bin	0.33333333333333	0
bin	0.36666666666667	0
bin	0.4	0
bin	0.43333333333333	0
bin	0.46666666666667	0
bin	0.5	0
statistic WirelessNetwork.ap2.wlan[0].radio 	minSNIR:histogram
field count 0
field mean nan
field stddev nan
field sum 0
field sqrsum 0
field min nan
field max nan
attr source  minSNIR
attr title  "Min SNIR, histogram"
bin	-INF	0
bin	-0.5	0
bin	-0.46666666666667	0
bin	-0.43333333333333	0
bin	-0.4	0
bin	-0.36666666666667	0
bin	-0.33333333333333	0
bin	-0.3	0
bin	-0.26666666666667	0
bin	-0.23333333333333	0
bin	-0.2	0
bin	-0.16666666666667	0
bin	-0.13333333333333	0
bin	-0.1	0
bin	-0.066666666666667	0
bin	-0.033333333333333	0
bin	-6.9388939039072e-018	0
bin	0.033333333333333	0
bin	0.066666666666667	0
bin	0.1	0
bin	0.13333333333333	0
bin	0.16666666666667	0
bin	0.2	0
bin	0.23333333333333	0
bin	0.26666666666667	0
bin	0.3	0
bin	0.33333333333333	0
bin	0.36666666666667	0
bin	0.4	0
bin	0.43333333333333	0
bin	0.46666666666667	0
bin	0.5	0
scalar WirelessNetwork.ap2.wlan[0].radio 	transmissionState:count 	0
attr interpolationmode  sample-hold
attr source  transmissionStateChanged
attr title  "Radio transmission state, count"
scalar WirelessNetwork.ap2.wlan[0].radio 	receptionState:count 	1
attr interpolationmode  sample-hold
attr source  receptionStateChanged
attr title  "Radio reception state, count"
scalar WirelessNetwork.ap2.wlan[0].radio 	radioMode:count 	2
attr interpolationmode  sample-hold
attr source  radioModeChanged
attr title  "Radio mode, count"
statistic WirelessNetwork.ap2.wlan[0].radio 	radioChannel:histogram
field count 1
field mean 0
field stddev nan
field sum 0
field sqrsum 0
field min 0
field max 0
attr interpolationmode  sample-hold
attr source  radioChannelChanged
attr title  "Radio channel, histogram"
bin	-INF	0
bin	-0.5	0
bin	-0.46666666666667	0
bin	-0.43333333333333	0
bin	-0.4	0
bin	-0.36666666666667	0
bin	-0.33333333333333	0
bin	-0.3	0
bin	-0.26666666666667	0
bin	-0.23333333333333	0
bin	-0.2	0
bin	-0.16666666666667	0
bin	-0.13333333333333	0
bin	-0.1	0
bin	-0.066666666666667	0
bin	-0.033333333333333	0
bin	-6.9388939039072e-018	1
bin	0.033333333333333	0
bin	0.066666666666667	0
bin	0.1	0
bin	0.13333333333333	0
bin	0.16666666666667	0
bin	0.2	0
bin	0.23333333333333	0
bin	0.26666666666667	0
bin	0.3	0
bin	0.33333333333333	0
bin	0.36666666666667	0
bin	0.4	0
bin	0.43333333333333	0
bin	0.46666666666667	0
bin	0.5	0
scalar WirelessNetwork.ap2.eth[0].queue.pauseQueue 	queueLength:max 	0
attr interpolationmode  sample-hold
attr title  "queue length, max"
scalar WirelessNetwork.ap2.eth[0].queue.pauseQueue 	queueLength:timeavg 	0
attr interpolationmode  sample-hold
attr title  "queue length, timeavg"
statistic WirelessNetwork.ap2.eth[0].queue.pauseQueue 	queueingTime:histogram
field count 0
field mean nan
field stddev nan
field sum 0
field sqrsum 0
field min nan
field max nan
attr interpolationmode  none
attr title  "queueing time, histogram"
bin	-INF	0
bin	-0.5	0
bin	-0.46666666666667	0
bin	-0.43333333333333	0
bin	-0.4	0
bin	-0.36666666666667	0
bin	-0.33333333333333	0
bin	-0.3	0
bin	-0.26666666666667	0
bin	-0.23333333333333	0
bin	-0.2	0
bin	-0.16666666666667	0
bin	-0.13333333333333	0
bin	-0.1	0
bin	-0.066666666666667	0
bin	-0.033333333333333	0
bin	-6.9388939039072e-018	0
bin	0.033333333333333	0
bin	0.066666666666667	0
bin	0.1	0
bin	0.13333333333333	0
bin	0.16666666666667	0
bin	0.2	0
bin	0.23333333333333	0
bin	0.26666666666667	0
bin	0.3	0
bin	0.33333333333333	0
bin	0.36666666666667	0
bin	0.4	0
bin	0.43333333333333	0
bin	0.46666666666667	0
bin	0.5	0
scalar WirelessNetwork.ap2.eth[0].queue.pauseQueue 	dropPk:count 	0
attr interpolationmode  none
attr source  dropPkByQueue
attr title  "dropped packets, count"
scalar WirelessNetwork.ap2.eth[0].queue.pauseQueue 	dropPk:sum(packetBytes) 	0
attr interpolationmode  none
attr source  dropPkByQueue
attr title  "dropped packets, sum(packetBytes)"
scalar WirelessNetwork.ap2.eth[0].queue.pauseQueue 	rcvdPk:count 	0
attr interpolationmode  none
attr title  "received packets, count"
scalar WirelessNetwork.ap2.eth[0].queue.pauseQueue 	rcvdPk:sum(packetBytes) 	0
attr interpolationmode  none
attr title  "received packets, sum(packetBytes)"
scalar WirelessNetwork.ap2.eth[0].queue.dataQueue 	queueLength:max 	0
attr interpolationmode  sample-hold
attr title  "queue length, max"
scalar WirelessNetwork.ap2.eth[0].queue.dataQueue 	queueLength:timeavg 	0
attr interpolationmode  sample-hold
attr title  "queue length, timeavg"
statistic WirelessNetwork.ap2.eth[0].queue.dataQueue 	queueingTime:histogram
field count 0
field mean nan
field stddev nan
field sum 0
field sqrsum 0
field min nan
field max nan
attr interpolationmode  none
attr title  "queueing time, histogram"
bin	-INF	0
bin	-0.5	0
bin	-0.46666666666667	0
bin	-0.43333333333333	0
bin	-0.4	0
bin	-0.36666666666667	0
bin	-0.33333333333333	0
bin	-0.3	0
bin	-0.26666666666667	0
bin	-0.23333333333333	0
bin	-0.2	0
bin	-0.16666666666667	0
bin	-0.13333333333333	0
bin	-0.1	0
bin	-0.066666666666667	0
bin	-0.033333333333333	0
bin	-6.9388939039072e-018	0
bin	0.033333333333333	0
bin	0.066666666666667	0
bin	0.1	0
bin	0.13333333333333	0
bin	0.16666666666667	0
bin	0.2	0
bin	0.23333333333333	0
bin	0.26666666666667	0
bin	0.3	0
bin	0.33333333333333	0
bin	0.36666666666667	0
bin	0.4	0
bin	0.43333333333333	0
bin	0.46666666666667	0
bin	0.5	0
scalar WirelessNetwork.ap2.eth[0].queue.dataQueue 	dropPk:count 	0
attr interpolationmode  none
attr source  dropPkByQueue
attr title  "dropped packets, count"
scalar WirelessNetwork.ap2.eth[0].queue.dataQueue 	dropPk:sum(packetBytes) 	0
attr interpolationmode  none
attr source  dropPkByQueue
attr title  "dropped packets, sum(packetBytes)"
scalar WirelessNetwork.ap2.eth[0].queue.dataQueue 	rcvdPk:count 	0
attr interpolationmode  none
attr title  "received packets, count"
scalar WirelessNetwork.ap2.eth[0].queue.dataQueue 	rcvdPk:sum(packetBytes) 	0
attr interpolationmode  none
attr title  "received packets, sum(packetBytes)"
scalar WirelessNetwork.ap2.eth[0].mac 	"simulated time" 	2.93e-005
scalar WirelessNetwork.ap2.eth[0].mac 	full-duplex 	1
scalar WirelessNetwork.ap2.eth[0].mac 	"frames/sec sent" 	0
scalar WirelessNetwork.ap2.eth[0].mac 	"frames/sec rcvd" 	0
scalar WirelessNetwork.ap2.eth[0].mac 	"bits/sec sent" 	0
scalar WirelessNetwork.ap2.eth[0].mac 	"bits/sec rcvd" 	0
scalar WirelessNetwork.ap2.eth[0].mac 	"rx channel idle (%)" 	100
scalar WirelessNetwork.ap2.eth[0].mac 	"rx channel utilization (%)" 	0
scalar WirelessNetwork.ap2.eth[0].mac 	rxPkFromHL:count 	0
attr interpolationmode  none
attr source  rxPkFromHL
attr title  "packet bytes from higher layer, count"
scalar WirelessNetwork.ap2.eth[0].mac 	rxPkFromHL:sum(packetBytes) 	0
attr interpolationmode  none
attr source  rxPkFromHL
attr title  "packet bytes from higher layer, sum(packetBytes)"
scalar WirelessNetwork.ap2.eth[0].mac 	rxPausePkUnits:count 	0
attr interpolationmode  none
attr title  "pause units received, count"
scalar WirelessNetwork.ap2.eth[0].mac 	rxPausePkUnits:sum 	0
attr interpolationmode  none
attr title  "pause units received, sum"
scalar WirelessNetwork.ap2.eth[0].mac 	txPausePkUnits:count 	0
attr interpolationmode  none
attr title  "pause units sent, count"
scalar WirelessNetwork.ap2.eth[0].mac 	txPausePkUnits:sum 	0
attr interpolationmode  none
attr title  "pause units sent, sum"
scalar WirelessNetwork.ap2.eth[0].mac 	txPk:count 	0
attr interpolationmode  none
attr source  txPk
attr title  "packets transmitted, count"
scalar WirelessNetwork.ap2.eth[0].mac 	txPk:sum(packetBytes) 	0
attr interpolationmode  none
attr source  txPk
attr title  "packets transmitted, sum(packetBytes)"
scalar WirelessNetwork.ap2.eth[0].mac 	droppedPkNotForUs:count 	0
attr interpolationmode  none
attr source  dropPkNotForUs
attr title  "packets dropped/not for us, count"
scalar WirelessNetwork.ap2.eth[0].mac 	droppedPkNotForUs:sum(packetBytes) 	0
attr interpolationmode  none
attr source  dropPkNotForUs
attr title  "packets dropped/not for us, sum(packetBytes)"
scalar WirelessNetwork.ap2.eth[0].mac 	droppedPkBitError:count 	0
attr interpolationmode  none
attr source  dropPkBitError
attr title  "packets dropped/bit error, count"
scalar WirelessNetwork.ap2.eth[0].mac 	droppedPkBitError:sum(packetBytes) 	0
attr interpolationmode  none
attr source  dropPkBitError
attr title  "packets dropped/bit error, sum(packetBytes)"
scalar WirelessNetwork.ap2.eth[0].mac 	droppedPkIfaceDown:count 	0
attr interpolationmode  none
attr source  dropPkIfaceDown
attr title  "packets dropped/interface down, count"
scalar WirelessNetwork.ap2.eth[0].mac 	droppedPkIfaceDown:sum(packetBytes) 	0
attr interpolationmode  none
attr source  dropPkIfaceDown
attr title  "packets dropped/interface down, sum(packetBytes)"
scalar WirelessNetwork.ap2.eth[0].mac 	rxPkOk:count 	0
attr interpolationmode  none
attr source  rxPkOk
attr title  "packets received OK, count"
scalar WirelessNetwork.ap2.eth[0].mac 	rxPkOk:sum(packetBytes) 	0
attr interpolationmode  none
attr source  rxPkOk
attr title  "packets received OK, sum(packetBytes)"
scalar WirelessNetwork.ap2.eth[0].mac 	passedUpPk:count 	0
attr interpolationmode  none
attr source  packetSentToUpper
attr title  "packets passed to higher layer, count"
scalar WirelessNetwork.ap2.eth[0].mac 	passedUpPk:sum(packetBytes) 	0
attr interpolationmode  none
attr source  packetSentToUpper
attr title  "packets passed to higher layer, sum(packetBytes)"
